@<TRIPOS>MOLECULE
LF_s1_exe.mol2
    203 0 0 0
SMALL
GASTEIGER
@<TRIPOS>ATOM
   1 H       0.4344   -2.5854    1.9346 H1   1 S1_EXE   0.015251
   2 H       3.3862    0.8400    1.7000 H1   1 S1_EXE   0.019587
   3 H       3.3012    1.7950    1.4121 H1   1 S1_EXE   0.015363
   4 H       2.4916    0.4971    1.4043 H1   1 S1_EXE   0.011061
   5 H       4.3068    0.5860    1.4012 H1   1 S1_EXE   0.014674
   6 H       4.6792    0.1609   -0.8538 H1   1 S1_EXE   0.005935
   7 H       3.3725    2.2726   -0.9334 H1   1 S1_EXE   0.010126
   8 H       2.2573    0.1504   -1.0649 H1   1 S1_EXE   0.007983
   9 H       4.2479    0.8363   -1.4626 H1   1 S1_EXE   0.017879
  10 H       2.9745    1.5366   -1.5018 H1   1 S1_EXE   0.013815
  11 H       3.1682    0.1504   -1.5338 H1   1 S1_EXE   0.010038
  12 H       2.1662    1.4812    1.6999 H1   1 S1_EXE  -0.004657
  13 H       1.7630    2.3503    1.4128 H1   1 S1_EXE  -0.017870
  14 H       2.7337    2.5849    1.1706 H1   1 S1_EXE  -0.003949
  15 H       0.9098    2.2683    0.8496 H1   1 S1_EXE  -0.048019
  16 H       3.3033    2.7033    0.3485 H1   1 S1_EXE   0.004321
  17 H       0.8687    2.5924   -0.0983 H1   1 S1_EXE  -0.047913
  18 H       1.3796    2.6432   -0.9775 H1   1 S1_EXE  -0.026536
  19 H       2.4983    2.7248   -1.1221 H1   1 S1_EXE  -0.008081
  20 H       1.2149    1.7455   -1.3892 H1   1 S1_EXE  -0.025686
  21 H       1.7167    0.8777   -1.5211 H1   1 S1_EXE  -0.003414
  22 H       0.9531    0.7752    1.6999 H1   1 S1_EXE  -0.010785
  23 H      -0.0046    0.8381    1.4067 H1   1 S1_EXE  -0.053915
  24 H      -0.1988    0.0903   -1.0431 H1   1 S1_EXE  -0.025519
  25 H       0.0658    0.9705   -1.4412 H1   1 S1_EXE  -0.056611
  26 H       0.6755    0.0994   -1.5306 H1   1 S1_EXE  -0.001857
  27 H       0.9742   -0.6372    1.6999 H1   1 S1_EXE   0.004491
  28 H       0.1289   -0.1810    1.4091 H1   1 S1_EXE  -0.005162
  29 H       1.8935   -0.3530    1.4007 H1   1 S1_EXE   0.007912
  30 H       0.4723   -1.4507    1.4006 H1   1 S1_EXE   0.018563
  31 H       0.9926   -2.0506   -0.9267 H1   1 S1_EXE   0.017875
  32 H       0.4007   -1.3665   -1.4203 H1   1 S1_EXE   0.018817
  33 H       1.4030   -1.2904   -1.5034 H1   1 S1_EXE   0.010056
  34 H       2.2120   -1.2903    1.7000 H1   1 S1_EXE   0.009508
  35 H       1.4128   -1.8171    1.4031 H1   1 S1_EXE   0.013106
  36 H       3.1326   -1.5444    1.4012 H1   1 S1_EXE  -0.000704
  37 H       2.3907   -2.2344    1.3938 H1   1 S1_EXE   0.011130
  38 H       3.2247   -2.3683    0.8171 H1   1 S1_EXE   0.004657
  39 H       1.2818   -2.5209    0.6999 H1   1 S1_EXE   0.017346
  40 H       3.3910   -2.4357   -0.3874 H1   1 S1_EXE   0.003292
  41 H       2.6965   -2.4612   -1.1190 H1   1 S1_EXE   0.009539
  42 H       3.1935   -1.6121   -1.3440 H1   1 S1_EXE  -0.001130
  43 H       2.6946   -0.7429   -1.5381 H1   1 S1_EXE   0.002040
  44 H       3.4024   -0.5782    1.7000 H1   1 S1_EXE  -0.005562
  45 H       4.2724   -0.5374   -1.4575 H1   1 S1_EXE  -0.006936
  46 H       4.4417    1.7342    1.6832 H1   1 S1_EXE   0.015395
  47 H       5.0743    2.4708    1.4260 H1   1 S1_EXE   0.014482
  48 H       4.0732    2.5842    1.2871 H1   1 S1_EXE   0.010556
  49 H       5.0611    0.2251    0.8497 H1   1 S1_EXE   0.007513
  50 H       5.8843    2.4794    0.8336 H1   1 S1_EXE   0.015074
  51 H       6.3245    1.6950    0.3502 H1   1 S1_EXE   0.015119
  52 H       5.9138    0.5449    0.3436 H1   1 S1_EXE   0.011011
  53 H       5.6312    3.0386    0.0296 H1   1 S1_EXE   0.012370
  54 H       6.1646    2.3040   -0.4402 H1   1 S1_EXE   0.014614
  55 H       5.2496    2.9624   -0.8956 H1   1 S1_EXE   0.012654
  56 H       4.2609    2.7904   -1.1880 H1   1 S1_EXE   0.010421
  57 H       4.0079    1.8072   -1.5605 H1   1 S1_EXE   0.015771
  58 H       4.4987   -1.4287    1.6835 H1   1 S1_EXE  -0.004687
  59 H       4.4321   -0.4595    1.4462 H1   1 S1_EXE  -0.004729
  60 H       5.1771   -2.1232    1.4164 H1   1 S1_EXE  -0.004164
  61 H       4.1648   -2.2937    1.2781 H1   1 S1_EXE  -0.001584
  62 H       5.9990   -2.0537    0.8127 H1   1 S1_EXE  -0.004868
  63 H       6.3701   -1.2380    0.3284 H1   1 S1_EXE  -0.003980
  64 H       5.7161   -2.6758    0.0458 H1   1 S1_EXE  -0.002830
  65 H       6.1011   -0.3478   -0.0988 H1   1 S1_EXE   0.000298
  66 H       6.2341   -1.9227   -0.4167 H1   1 S1_EXE  -0.004270
  67 H       5.3411   -2.6089   -0.8937 H1   1 S1_EXE  -0.002972
  68 H       4.1017   -2.4316   -1.1276 H1   1 S1_EXE  -0.000963
  69 H       4.8951   -1.9682   -1.5560 H1   1 S1_EXE  -0.003858
  70 H       1.9625    3.2409    0.9876 H1   1 S1_EXE  -0.014588
  71 H       2.7026    3.5382    0.3736 H1   1 S1_EXE  -0.006228
  72 H       1.3068    3.4459    0.2324 H1   1 S1_EXE  -0.024561
  73 H       2.0512    3.7011   -0.4052 H1   1 S1_EXE  -0.012909
  74 H      -0.3360    1.7760    1.5186 H1   1 S1_EXE  -0.077657
  75 H      -1.1388    2.1660    1.0501 H1   1 S1_EXE  -0.076704
  76 H      -0.0303    2.6183    1.0419 H1   1 S1_EXE  -0.072594
  77 H      -0.7953    2.8681    0.4094 H1   1 S1_EXE  -0.068983
  78 H      -0.0464    3.0081   -0.2404 H1   1 S1_EXE  -0.063980
  79 H      -1.2523    2.5617   -0.4336 H1   1 S1_EXE  -0.071724
  80 H      -4.6009    1.4370   -1.1815 H1   1 S1_EXE  -0.020225
  81 H       0.3697    2.4936   -1.0189 H1   1 S1_EXE  -0.067770
  82 H      -0.6238    2.3612   -1.2156 H1   1 S1_EXE  -0.076743
  83 H      -0.5074   -1.2411    1.5246 H1   1 S1_EXE   0.021299
  84 H      -1.1146   -1.8491   -1.1545 H1   1 S1_EXE   0.027661
  85 H      -0.5078   -0.7906   -1.4366 H1   1 S1_EXE   0.013306
  86 H       2.1008   -3.0889    0.9388 H1   1 S1_EXE   0.011800
  87 H       2.9357   -3.2530    0.4083 H1   1 S1_EXE   0.007583
  88 H       1.5383   -3.3143    0.1259 H1   1 S1_EXE   0.015452
  89 H       2.3769   -3.4738   -0.4192 H1   1 S1_EXE   0.010258
  90 H       1.5323   -2.8957   -0.7961 H1   1 S1_EXE   0.015458
  91 H       4.7154    3.3218    1.0001 H1   1 S1_EXE   0.009147
  92 H       3.8180    3.5454    0.5796 H1   1 S1_EXE   0.004492
  93 H       4.7031    3.8741    0.1629 H1   1 S1_EXE   0.006993
  94 H       3.5329    3.3794   -0.3739 H1   1 S1_EXE   0.003209
  95 H       6.3174    1.0217   -0.4385 H1   1 S1_EXE   0.013166
  96 H       5.6941    0.3016   -0.7552 H1   1 S1_EXE   0.008439
  97 H       6.3919    1.6891   -1.2173 H1   1 S1_EXE   0.013584
  98 H       5.6741    2.3208   -1.5597 H1   1 S1_EXE   0.014065
  99 H       6.0399    0.7981   -1.5605 H1   1 S1_EXE   0.011167
 100 H       5.1188    0.9239   -1.9592 H1   1 S1_EXE   0.011861
 101 H       5.3071    1.3941    2.0763 H1   1 S1_EXE   0.012631
 102 H       6.1035    1.8221    1.6441 H1   1 S1_EXE   0.013415
 103 H       5.6693    0.5723    1.6297 H1   1 S1_EXE   0.010131
 104 H       4.8488   -2.9741    1.0027 H1   1 S1_EXE  -0.001046
 105 H       3.8958   -3.1268    0.6850 H1   1 S1_EXE   0.001894
 106 H       4.6514   -3.5669    0.1971 H1   1 S1_EXE   0.000487
 107 H       3.8929   -3.3064   -0.4095 H1   1 S1_EXE   0.002211
 108 H       5.3371   -1.0199    2.0748 H1   1 S1_EXE  -0.002711
 109 H       6.1758   -1.3557    1.6452 H1   1 S1_EXE  -0.003964
 110 H       6.0310   -0.3555    1.5248 H1   1 S1_EXE  -0.000096
 111 H       6.4996   -1.0128   -0.7716 H1   1 S1_EXE  -0.003160
 112 H       5.9479   -1.9332   -1.3839 H1   1 S1_EXE  -0.004686
 113 H       6.1055   -0.3506   -1.4240 H1   1 S1_EXE  -0.000069
 114 H       5.1793   -0.3435   -1.8327 H1   1 S1_EXE   0.000215
 115 H       5.7887   -1.1259   -1.9717 H1   1 S1_EXE  -0.003227
 116 H      -1.3315    0.8200    1.6999 H1   1 S1_EXE  -0.072278
 117 H      -2.2797    0.6767    1.4054 H1   1 S1_EXE  -0.073480
 118 H      -2.5761    0.1894   -0.9694 H1   1 S1_EXE  -0.030106
 119 H      -1.5329    1.9143   -1.2959 H1   1 S1_EXE  -0.076333
 120 H      -2.1278    0.9254   -1.5015 H1   1 S1_EXE  -0.082205
 121 H      -1.1183    0.1038   -1.5208 H1   1 S1_EXE  -0.049586
 122 H      -0.9145    1.1755   -1.6107 H1   1 S1_EXE  -0.070334
 123 H      -1.4300   -0.6347    1.6999 H1   1 S1_EXE   0.001110
 124 H      -2.3527   -0.3689    1.4079 H1   1 S1_EXE   0.013043
 125 H      -1.7436   -1.5374    1.3994 H1   1 S1_EXE   0.042448
 126 H      -2.3603   -0.6991   -1.4238 H1   1 S1_EXE   0.039502
 127 H      -0.5469   -2.6841    1.6717 H1   1 S1_EXE   0.020226
 128 H      -0.7530   -3.6276    1.3788 H1   1 S1_EXE   0.020396
 129 H      -1.4266   -2.8575    1.2239 H1   1 S1_EXE   0.027026
 130 H      -0.2032   -4.2679    0.8021 H1   1 S1_EXE   0.017954
 131 H       0.6931   -4.1394    0.3531 H1   1 S1_EXE   0.016460
 132 H      -1.0579   -4.2439    0.2533 H1   1 S1_EXE   0.020429
 133 H      -0.0981   -4.4531   -0.1822 H1   1 S1_EXE   0.017339
 134 H      -1.0858   -4.0559   -0.7330 H1   1 S1_EXE   0.020912
 135 H      -1.5081   -2.7797   -1.1434 H1   1 S1_EXE   0.028834
 136 H      -0.7891   -3.4340   -1.4691 H1   1 S1_EXE   0.020739
 137 H      -0.2416   -2.1430   -1.5802 H1   1 S1_EXE   0.020778
 138 H      -2.6185    1.5868    1.6998 H1   1 S1_EXE  -0.055243
 139 H      -3.1975    2.3518    1.4114 H1   1 S1_EXE  -0.045843
 140 H      -2.1388    2.4200    1.4072 H1   1 S1_EXE  -0.059081
 141 H      -3.9979    2.0113    0.9105 H1   1 S1_EXE  -0.033322
 142 H      -4.1529    2.3362   -0.0727 H1   1 S1_EXE  -0.035698
 143 H      -3.7688    2.3491   -1.0070 H1   1 S1_EXE  -0.040283
 144 H      -3.5688    1.4531   -1.4053 H1   1 S1_EXE  -0.032407
 145 H      -2.3885    2.4434   -1.4566 H1   1 S1_EXE  -0.055798
 146 H      -3.7224    0.7658    1.5499 H1   1 S1_EXE  -0.021048
 147 H      -4.5596    1.2179    1.2310 H1   1 S1_EXE  -0.019179
 148 H      -4.8292    0.2732    0.9660 H1   1 S1_EXE  -0.000675
 149 H      -5.0617    0.2759   -0.6077 H1   1 S1_EXE   0.002251
 150 H      -4.3493    0.2843   -1.3311 H1   1 S1_EXE  -0.006868
 151 H      -2.7191   -1.3211    1.5402 H1   1 S1_EXE   0.056210
 152 H      -2.4755   -2.2415    1.2268 H1   1 S1_EXE   0.050384
 153 H      -3.4328   -1.8937    1.1230 H1   1 S1_EXE   0.050388
 154 H      -3.0979   -2.6396    0.5439 H1   1 S1_EXE   0.045145
 155 H      -2.4438   -2.8303   -0.2012 H1   1 S1_EXE   0.042363
 156 H      -3.6862   -2.3231   -0.2255 H1   1 S1_EXE   0.043489
 157 H      -2.9784   -2.4382   -0.9559 H1   1 S1_EXE   0.048098
 158 H      -2.1378   -2.0118   -1.3131 H1   1 S1_EXE   0.050162
 159 H      -3.2763   -1.5646   -1.3411 H1   1 S1_EXE   0.053787
 160 H      -3.7498   -0.6447    1.6999 H1   1 S1_EXE   0.019286
 161 H      -4.2849   -1.4354   -1.4017 H1   1 S1_EXE   0.030863
 162 H      -3.3937    0.0242   -1.5259 H1   1 S1_EXE  -0.002829
 163 H      -2.7269    3.2499    1.4536 H1   1 S1_EXE  -0.045656
 164 H      -3.6658    3.2009    1.1030 H1   1 S1_EXE  -0.040722
 165 H      -1.7829    3.3294    1.0958 H1   1 S1_EXE  -0.050830
 166 H      -2.4999    4.0337    0.8743 H1   1 S1_EXE  -0.041730
 167 H      -3.4727    4.0002    0.5323 H1   1 S1_EXE  -0.038224
 168 H      -1.7069    3.9271    0.2699 H1   1 S1_EXE  -0.045244
 169 H      -4.1175    3.3118    0.1937 H1   1 S1_EXE  -0.037425
 170 H      -2.7152    4.3242   -0.0722 H1   1 S1_EXE  -0.038935
 171 H      -3.6180    3.9247   -0.4595 H1   1 S1_EXE  -0.037919
 172 H      -1.5164    3.5172   -0.6403 H1   1 S1_EXE  -0.050888
 173 H      -2.3992    3.9526   -0.9522 H1   1 S1_EXE  -0.042634
 174 H      -3.4638    3.2859   -1.2216 H1   1 S1_EXE  -0.041618
 175 H      -4.8210   -1.2099    1.5201 H1   1 S1_EXE   0.024839
 176 H      -5.5413   -0.5919    1.1963 H1   1 S1_EXE   0.018283
 177 H      -5.6106   -1.7301    1.1881 H1   1 S1_EXE   0.021968
 178 H      -4.5211   -2.1069    1.1800 H1   1 S1_EXE   0.029232
 179 H      -6.1970   -1.1216    0.6511 H1   1 S1_EXE   0.018552
 180 H      -5.2695   -2.5021    0.6429 H1   1 S1_EXE   0.023463
 181 H      -5.6349    0.0233    0.4046 H1   1 S1_EXE   0.011677
 182 H      -6.0802   -2.0238    0.2336 H1   1 S1_EXE   0.019982
 183 H      -4.6316   -2.7011   -0.1170 H1   1 S1_EXE   0.027851
 184 H      -6.2033   -0.5884   -0.2009 H1   1 S1_EXE   0.016542
 185 H      -5.5277   -2.4455   -0.5112 H1   1 S1_EXE   0.022187
 186 H      -6.1802   -1.5027   -0.6184 H1   1 S1_EXE   0.019340
 187 H      -5.6319   -0.4348   -1.0379 H1   1 S1_EXE   0.016864
 188 H      -4.6559   -2.2921   -1.0413 H1   1 S1_EXE   0.027866
 189 H      -5.4599   -1.6915   -1.2900 H1   1 S1_EXE   0.022638
 190 H       0.1969   -3.5543    2.0160 H1   1 S1_EXE   0.014581
 191 H       1.1285   -3.2855    1.6994 H1   1 S1_EXE   0.013233
 192 H       0.7127   -4.1407    1.3799 H1   1 S1_EXE   0.013906
 193 H       1.0750   -3.9573   -0.5589 H1   1 S1_EXE   0.015401
 194 H       0.2650   -4.3254   -1.1110 H1   1 S1_EXE   0.015495
 195 H       1.2059   -3.5686   -1.4860 H1   1 S1_EXE   0.013280
 196 H       0.9103   -2.6388   -1.7564 H1   1 S1_EXE   0.014375
 197 H       0.0764   -3.7318   -1.9212 H1   1 S1_EXE   0.015013
 198 H      -1.7128   -3.7735    0.8877 H1   1 S1_EXE   0.023149
 199 H      -2.2403   -3.8143    0.0203 H1   1 S1_EXE   0.025267
 200 H      -5.4651    1.4091    0.8437 H1   1 S1_EXE  -0.011576
 201 H      -4.9445    2.2333    0.5787 H1   1 S1_EXE  -0.021579
 202 H      -5.7939    0.9355    0.0121 H1   1 S1_EXE  -0.004742
 203 H      -5.6026    1.9247   -0.1119 H1   1 S1_EXE  -0.013959
