@<TRIPOS>MOLECULE
LF_s2_exe.mol2
    203 0 0 0
SMALL
GASTEIGER
@<TRIPOS>ATOM
   1 H       0.4344   -2.5854    1.9346 H1   1 S2_EXE  -0.038021
   2 H       3.3862    0.8400    1.7000 H1   1 S2_EXE  -0.058528
   3 H       3.3012    1.7950    1.4121 H1   1 S2_EXE  -0.056953
   4 H       2.4916    0.4971    1.4043 H1   1 S2_EXE  -0.069259
   5 H       4.3068    0.5860    1.4012 H1   1 S2_EXE  -0.057314
   6 H       4.6792    0.1609   -0.8538 H1   1 S2_EXE  -0.060716
   7 H       3.3725    2.2726   -0.9334 H1   1 S2_EXE  -0.055996
   8 H       2.2573    0.1504   -1.0649 H1   1 S2_EXE  -0.073696
   9 H       4.2479    0.8363   -1.4626 H1   1 S2_EXE  -0.054471
  10 H       2.9745    1.5366   -1.5018 H1   1 S2_EXE  -0.062166
  11 H       3.1682    0.1504   -1.5338 H1   1 S2_EXE  -0.069099
  12 H       2.1662    1.4812    1.6999 H1   1 S2_EXE  -0.063996
  13 H       1.7630    2.3503    1.4128 H1   1 S2_EXE  -0.057330
  14 H       2.7337    2.5849    1.1706 H1   1 S2_EXE  -0.056645
  15 H       0.9098    2.2683    0.8496 H1   1 S2_EXE  -0.065979
  16 H       3.3033    2.7033    0.3485 H1   1 S2_EXE  -0.053828
  17 H       0.8687    2.5924   -0.0983 H1   1 S2_EXE  -0.056436
  18 H       1.3796    2.6432   -0.9775 H1   1 S2_EXE  -0.054012
  19 H       2.4983    2.7248   -1.1221 H1   1 S2_EXE  -0.055936
  20 H       1.2149    1.7455   -1.3892 H1   1 S2_EXE  -0.064720
  21 H       1.7167    0.8777   -1.5211 H1   1 S2_EXE  -0.066791
  22 H       0.9531    0.7752    1.6999 H1   1 S2_EXE  -0.061022
  23 H      -0.0046    0.8381    1.4067 H1   1 S2_EXE  -0.079818
  24 H      -0.1988    0.0903   -1.0431 H1   1 S2_EXE  -0.069907
  25 H       0.0658    0.9705   -1.4412 H1   1 S2_EXE  -0.081182
  26 H       0.6755    0.0994   -1.5306 H1   1 S2_EXE  -0.063793
  27 H       0.9742   -0.6372    1.6999 H1   1 S2_EXE  -0.063054
  28 H       0.1289   -0.1810    1.4091 H1   1 S2_EXE  -0.062444
  29 H       1.8935   -0.3530    1.4007 H1   1 S2_EXE  -0.071661
  30 H       0.4723   -1.4507    1.4006 H1   1 S2_EXE  -0.055614
  31 H       0.9926   -2.0506   -0.9267 H1   1 S2_EXE  -0.056272
  32 H       0.4007   -1.3665   -1.4203 H1   1 S2_EXE  -0.055620
  33 H       1.4030   -1.2904   -1.5034 H1   1 S2_EXE  -0.066435
  34 H       2.2120   -1.2903    1.7000 H1   1 S2_EXE  -0.061218
  35 H       1.4128   -1.8171    1.4031 H1   1 S2_EXE  -0.060402
  36 H       3.1326   -1.5444    1.4012 H1   1 S2_EXE  -0.062620
  37 H       2.3907   -2.2344    1.3938 H1   1 S2_EXE  -0.055043
  38 H       3.2247   -2.3683    0.8171 H1   1 S2_EXE  -0.056106
  39 H       1.2818   -2.5209    0.6999 H1   1 S2_EXE  -0.052675
  40 H       3.3910   -2.4357   -0.3874 H1   1 S2_EXE  -0.056661
  41 H       2.6965   -2.4612   -1.1190 H1   1 S2_EXE  -0.054333
  42 H       3.1935   -1.6121   -1.3440 H1   1 S2_EXE  -0.062427
  43 H       2.6946   -0.7429   -1.5381 H1   1 S2_EXE  -0.067686
  44 H       3.4024   -0.5782    1.7000 H1   1 S2_EXE  -0.067587
  45 H       4.2724   -0.5374   -1.4575 H1   1 S2_EXE  -0.064859
  46 H       4.4417    1.7342    1.6832 H1   1 S2_EXE  -0.044335
  47 H       5.0743    2.4708    1.4260 H1   1 S2_EXE  -0.038946
  48 H       4.0732    2.5842    1.2871 H1   1 S2_EXE  -0.043150
  49 H       5.0611    0.2251    0.8497 H1   1 S2_EXE  -0.054404
  50 H       5.8843    2.4794    0.8336 H1   1 S2_EXE  -0.037725
  51 H       6.3245    1.6950    0.3502 H1   1 S2_EXE  -0.039345
  52 H       5.9138    0.5449    0.3436 H1   1 S2_EXE  -0.045942
  53 H       5.6312    3.0386    0.0296 H1   1 S2_EXE  -0.036938
  54 H       6.1646    2.3040   -0.4402 H1   1 S2_EXE  -0.037528
  55 H       5.2496    2.9624   -0.8956 H1   1 S2_EXE  -0.037637
  56 H       4.2609    2.7904   -1.1880 H1   1 S2_EXE  -0.041224
  57 H       4.0079    1.8072   -1.5605 H1   1 S2_EXE  -0.047571
  58 H       4.4987   -1.4287    1.6835 H1   1 S2_EXE  -0.053157
  59 H       4.4321   -0.4595    1.4462 H1   1 S2_EXE  -0.062252
  60 H       5.1771   -2.1232    1.4164 H1   1 S2_EXE  -0.048032
  61 H       4.1648   -2.2937    1.2781 H1   1 S2_EXE  -0.050363
  62 H       5.9990   -2.0537    0.8127 H1   1 S2_EXE  -0.047036
  63 H       6.3701   -1.2380    0.3284 H1   1 S2_EXE  -0.047593
  64 H       5.7161   -2.6758    0.0458 H1   1 S2_EXE  -0.045210
  65 H       6.1011   -0.3478   -0.0988 H1   1 S2_EXE  -0.048766
  66 H       6.2341   -1.9227   -0.4167 H1   1 S2_EXE  -0.046058
  67 H       5.3411   -2.6089   -0.8937 H1   1 S2_EXE  -0.046174
  68 H       4.1017   -2.4316   -1.1276 H1   1 S2_EXE  -0.050369
  69 H       4.8951   -1.9682   -1.5560 H1   1 S2_EXE  -0.048888
  70 H       1.9625    3.2409    0.9876 H1   1 S2_EXE  -0.044149
  71 H       2.7026    3.5382    0.3736 H1   1 S2_EXE  -0.043163
  72 H       1.3068    3.4459    0.2324 H1   1 S2_EXE  -0.035765
  73 H       2.0512    3.7011   -0.4052 H1   1 S2_EXE  -0.037764
  74 H      -0.3360    1.7760    1.5186 H1   1 S2_EXE  -0.063347
  75 H      -1.1388    2.1660    1.0501 H1   1 S2_EXE   0.007099
  76 H      -0.0303    2.6183    1.0419 H1   1 S2_EXE  -0.040958
  77 H      -0.7953    2.8681    0.4094 H1   1 S2_EXE   0.039644
  78 H      -0.0464    3.0081   -0.2404 H1   1 S2_EXE  -0.016450
  79 H      -1.2523    2.5617   -0.4336 H1   1 S2_EXE   0.086753
  80 H      -4.6009    1.4370   -1.1815 H1   1 S2_EXE   0.065510
  81 H       0.3697    2.4936   -1.0189 H1   1 S2_EXE  -0.056762
  82 H      -0.6238    2.3612   -1.2156 H1   1 S2_EXE  -0.024081
  83 H      -0.5074   -1.2411    1.5246 H1   1 S2_EXE  -0.048367
  84 H      -1.1146   -1.8491   -1.1545 H1   1 S2_EXE  -0.034882
  85 H      -0.5078   -0.7906   -1.4366 H1   1 S2_EXE  -0.053497
  86 H       2.1008   -3.0889    0.9388 H1   1 S2_EXE  -0.048195
  87 H       2.9357   -3.2530    0.4083 H1   1 S2_EXE  -0.047783
  88 H       1.5383   -3.3143    0.1259 H1   1 S2_EXE  -0.045214
  89 H       2.3769   -3.4738   -0.4192 H1   1 S2_EXE  -0.045248
  90 H       1.5323   -2.8957   -0.7961 H1   1 S2_EXE  -0.049575
  91 H       4.7154    3.3218    1.0001 H1   1 S2_EXE  -0.036036
  92 H       3.8180    3.5454    0.5796 H1   1 S2_EXE  -0.038200
  93 H       4.7031    3.8741    0.1629 H1   1 S2_EXE  -0.032998
  94 H       3.5329    3.3794   -0.3739 H1   1 S2_EXE  -0.042213
  95 H       6.3174    1.0217   -0.4385 H1   1 S2_EXE  -0.041126
  96 H       5.6941    0.3016   -0.7552 H1   1 S2_EXE  -0.048448
  97 H       6.3919    1.6891   -1.2173 H1   1 S2_EXE  -0.036278
  98 H       5.6741    2.3208   -1.5597 H1   1 S2_EXE  -0.036203
  99 H       6.0399    0.7981   -1.5605 H1   1 S2_EXE  -0.040194
 100 H       5.1188    0.9239   -1.9592 H1   1 S2_EXE  -0.042786
 101 H       5.3071    1.3941    2.0763 H1   1 S2_EXE  -0.038886
 102 H       6.1035    1.8221    1.6441 H1   1 S2_EXE  -0.035679
 103 H       5.6693    0.5723    1.6297 H1   1 S2_EXE  -0.043280
 104 H       4.8488   -2.9741    1.0027 H1   1 S2_EXE  -0.043795
 105 H       3.8958   -3.1268    0.6850 H1   1 S2_EXE  -0.046150
 106 H       4.6514   -3.5669    0.1971 H1   1 S2_EXE  -0.040877
 107 H       3.8929   -3.3064   -0.4095 H1   1 S2_EXE  -0.045089
 108 H       5.3371   -1.0199    2.0748 H1   1 S2_EXE  -0.045809
 109 H       6.1758   -1.3557    1.6452 H1   1 S2_EXE  -0.043544
 110 H       6.0310   -0.3555    1.5248 H1   1 S2_EXE  -0.045286
 111 H       6.4996   -1.0128   -0.7716 H1   1 S2_EXE  -0.045209
 112 H       5.9479   -1.9332   -1.3839 H1   1 S2_EXE  -0.044998
 113 H       6.1055   -0.3506   -1.4240 H1   1 S2_EXE  -0.045267
 114 H       5.1793   -0.3435   -1.8327 H1   1 S2_EXE  -0.049015
 115 H       5.7887   -1.1259   -1.9717 H1   1 S2_EXE  -0.044082
 116 H      -1.3315    0.8200    1.6999 H1   1 S2_EXE  -0.062652
 117 H      -2.2797    0.6767    1.4054 H1   1 S2_EXE  -0.037749
 118 H      -2.5761    0.1894   -0.9694 H1   1 S2_EXE  -0.010074
 119 H      -1.5329    1.9143   -1.2959 H1   1 S2_EXE   0.007358
 120 H      -2.1278    0.9254   -1.5015 H1   1 S2_EXE  -0.039456
 121 H      -1.1183    0.1038   -1.5208 H1   1 S2_EXE  -0.074556
 122 H      -0.9145    1.1755   -1.6107 H1   1 S2_EXE  -0.058013
 123 H      -1.4300   -0.6347    1.6999 H1   1 S2_EXE  -0.039280
 124 H      -2.3527   -0.3689    1.4079 H1   1 S2_EXE  -0.018429
 125 H      -1.7436   -1.5374    1.3994 H1   1 S2_EXE  -0.016459
 126 H      -2.3603   -0.6991   -1.4238 H1   1 S2_EXE  -0.013052
 127 H      -0.5469   -2.6841    1.6717 H1   1 S2_EXE  -0.031202
 128 H      -0.7530   -3.6276    1.3788 H1   1 S2_EXE  -0.025241
 129 H      -1.4266   -2.8575    1.2239 H1   1 S2_EXE  -0.020106
 130 H      -0.2032   -4.2679    0.8021 H1   1 S2_EXE  -0.027463
 131 H       0.6931   -4.1394    0.3531 H1   1 S2_EXE  -0.033232
 132 H      -1.0579   -4.2439    0.2533 H1   1 S2_EXE  -0.021225
 133 H      -0.0981   -4.4531   -0.1822 H1   1 S2_EXE  -0.026449
 134 H      -1.0858   -4.0559   -0.7330 H1   1 S2_EXE  -0.021428
 135 H      -1.5081   -2.7797   -1.1434 H1   1 S2_EXE  -0.019209
 136 H      -0.7891   -3.4340   -1.4691 H1   1 S2_EXE  -0.025356
 137 H      -0.2416   -2.1430   -1.5802 H1   1 S2_EXE  -0.040793
 138 H      -2.6185    1.5868    1.6998 H1   1 S2_EXE   0.027493
 139 H      -3.1975    2.3518    1.4114 H1   1 S2_EXE   0.068259
 140 H      -2.1388    2.4200    1.4072 H1   1 S2_EXE   0.057431
 141 H      -3.9979    2.0113    0.9105 H1   1 S2_EXE   0.082302
 142 H      -4.1529    2.3362   -0.0727 H1   1 S2_EXE   0.099188
 143 H      -3.7688    2.3491   -1.0070 H1   1 S2_EXE   0.084416
 144 H      -3.5688    1.4531   -1.4053 H1   1 S2_EXE   0.058660
 145 H      -2.3885    2.4434   -1.4566 H1   1 S2_EXE   0.058421
 146 H      -3.7224    0.7658    1.5499 H1   1 S2_EXE   0.048496
 147 H      -4.5596    1.2179    1.2310 H1   1 S2_EXE   0.063044
 148 H      -4.8292    0.2732    0.9660 H1   1 S2_EXE   0.062951
 149 H      -5.0617    0.2759   -0.6077 H1   1 S2_EXE   0.068178
 150 H      -4.3493    0.2843   -1.3311 H1   1 S2_EXE   0.055203
 151 H      -2.7191   -1.3211    1.5402 H1   1 S2_EXE  -0.001850
 152 H      -2.4755   -2.2415    1.2268 H1   1 S2_EXE  -0.000708
 153 H      -3.4328   -1.8937    1.1230 H1   1 S2_EXE   0.024159
 154 H      -3.0979   -2.6396    0.5439 H1   1 S2_EXE   0.018352
 155 H      -2.4438   -2.8303   -0.2012 H1   1 S2_EXE   0.001107
 156 H      -3.6862   -2.3231   -0.2255 H1   1 S2_EXE   0.047973
 157 H      -2.9784   -2.4382   -0.9559 H1   1 S2_EXE   0.012292
 158 H      -2.1378   -2.0118   -1.3131 H1   1 S2_EXE  -0.007352
 159 H      -3.2763   -1.5646   -1.3411 H1   1 S2_EXE   0.013854
 160 H      -3.7498   -0.6447    1.6999 H1   1 S2_EXE   0.031352
 161 H      -4.2849   -1.4354   -1.4017 H1   1 S2_EXE   0.040794
 162 H      -3.3937    0.0242   -1.5259 H1   1 S2_EXE   0.031775
 163 H      -2.7269    3.2499    1.4536 H1   1 S2_EXE   0.063106
 164 H      -3.6658    3.2009    1.1030 H1   1 S2_EXE   0.081020
 165 H      -1.7829    3.3294    1.0958 H1   1 S2_EXE   0.079035
 166 H      -2.4999    4.0337    0.8743 H1   1 S2_EXE   0.072015
 167 H      -3.4727    4.0002    0.5323 H1   1 S2_EXE   0.081546
 168 H      -1.7069    3.9271    0.2699 H1   1 S2_EXE   0.089610
 169 H      -4.1175    3.3118    0.1937 H1   1 S2_EXE   0.095055
 170 H      -2.7152    4.3242   -0.0722 H1   1 S2_EXE   0.076587
 171 H      -3.6180    3.9247   -0.4595 H1   1 S2_EXE   0.084336
 172 H      -1.5164    3.5172   -0.6403 H1   1 S2_EXE   0.094645
 173 H      -2.3992    3.9526   -0.9522 H1   1 S2_EXE   0.071622
 174 H      -3.4638    3.2859   -1.2216 H1   1 S2_EXE   0.075647
 175 H      -4.8210   -1.2099    1.5201 H1   1 S2_EXE   0.040388
 176 H      -5.5413   -0.5919    1.1963 H1   1 S2_EXE   0.050717
 177 H      -5.6106   -1.7301    1.1881 H1   1 S2_EXE   0.041163
 178 H      -4.5211   -2.1069    1.1800 H1   1 S2_EXE   0.045406
 179 H      -6.1970   -1.1216    0.6511 H1   1 S2_EXE   0.049170
 180 H      -5.2695   -2.5021    0.6429 H1   1 S2_EXE   0.048522
 181 H      -5.6349    0.0233    0.4046 H1   1 S2_EXE   0.065633
 182 H      -6.0802   -2.0238    0.2336 H1   1 S2_EXE   0.045966
 183 H      -4.6316   -2.7011   -0.1170 H1   1 S2_EXE   0.055190
 184 H      -6.2033   -0.5884   -0.2009 H1   1 S2_EXE   0.057043
 185 H      -5.5277   -2.4455   -0.5112 H1   1 S2_EXE   0.047643
 186 H      -6.1802   -1.5027   -0.6184 H1   1 S2_EXE   0.046238
 187 H      -5.6319   -0.4348   -1.0379 H1   1 S2_EXE   0.054523
 188 H      -4.6559   -2.2921   -1.0413 H1   1 S2_EXE   0.047402
 189 H      -5.4599   -1.6915   -1.2900 H1   1 S2_EXE   0.040388
 190 H       0.1969   -3.5543    2.0160 H1   1 S2_EXE  -0.029700
 191 H       1.1285   -3.2855    1.6994 H1   1 S2_EXE  -0.038316
 192 H       0.7127   -4.1407    1.3799 H1   1 S2_EXE  -0.031300
 193 H       1.0750   -3.9573   -0.5589 H1   1 S2_EXE  -0.035866
 194 H       0.2650   -4.3254   -1.1110 H1   1 S2_EXE  -0.028815
 195 H       1.2059   -3.5686   -1.4860 H1   1 S2_EXE  -0.037348
 196 H       0.9103   -2.6388   -1.7564 H1   1 S2_EXE  -0.042357
 197 H       0.0764   -3.7318   -1.9212 H1   1 S2_EXE  -0.028458
 198 H      -1.7128   -3.7735    0.8877 H1   1 S2_EXE  -0.014416
 199 H      -2.2403   -3.8143    0.0203 H1   1 S2_EXE  -0.006820
 200 H      -5.4651    1.4091    0.8437 H1   1 S2_EXE   0.062348
 201 H      -4.9445    2.2333    0.5787 H1   1 S2_EXE   0.076641
 202 H      -5.7939    0.9355    0.0121 H1   1 S2_EXE   0.062771
 203 H      -5.6026    1.9247   -0.1119 H1   1 S2_EXE   0.065129
