@<TRIPOS>MOLECULE
water_s1_exe.mol2
    30 0 0 0
SMALL
GASTEIGER
@<TRIPOS>ATOM
   1 H      -0.1468    0.9661   -1.6434 H1   1 S1_EXE  -2.886223
   2 H       0.0046   -0.0118    1.6377 H1   1 S1_EXE   1.916784
   3 H      -0.3940    0.8474    1.3166 H1   1 S1_EXE   1.441664
   4 H       0.6404    0.6888    1.3119 H1   1 S1_EXE   1.746065
   5 H      -0.9324   -0.1532    1.3084 H1   1 S1_EXE   2.232684
   6 H       0.8733   -0.3832    1.3014 H1   1 S1_EXE   2.115470
   7 H      -0.1044   -0.9493    1.3003 H1   1 S1_EXE   1.219862
   8 H      -1.2117    0.6441    0.7714 H1   1 S1_EXE   2.182076
   9 H      -0.9490   -0.9966    0.7632 H1   1 S1_EXE   1.463261
  10 H       0.6866   -1.2049    0.7400 H1   1 S1_EXE   0.818981
  11 H       1.3667    0.2692    0.7260 H1   1 S1_EXE   2.597297
  12 H       0.2079    1.3898    0.6970 H1   1 S1_EXE   0.025277
  13 H      -1.4849   -0.2233    0.3539 H1   1 S1_EXE   2.785795
  14 H       1.3769   -0.6314    0.2435 H1   1 S1_EXE   2.276654
  15 H       1.0591    1.0860    0.2145 H1   1 S1_EXE   0.938017
  16 H      -1.1784    0.9059   -0.2004 H1   1 S1_EXE   0.975831
  17 H       1.4370    0.2989   -0.2773 H1   1 S1_EXE   2.502290
  18 H      -1.2028   -0.6891   -0.5057 H1   1 S1_EXE   0.985656
  19 H       1.0564   -0.3820   -0.9062 H1   1 S1_EXE   0.589111
  20 H      -1.0712    0.2294   -0.9359 H1   1 S1_EXE   0.832286
  21 H       0.2435   -0.0009   -1.3826 H1   1 S1_EXE  -0.647649
  22 H      -0.5663    1.6376    0.1130 H1   1 S1_EXE  -1.710481
  23 H       0.4767    1.8163   -0.1757 H1   1 S1_EXE  -2.748394
  24 H       1.0479    1.2506   -0.7823 H1   1 S1_EXE  -1.821317
  25 H      -0.2987    1.8615   -0.8281 H1   1 S1_EXE  -3.726152
  26 H      -0.1872   -1.5608    0.3985 H1   1 S1_EXE  -1.130662
  27 H      -0.3169   -1.6937   -1.1488 H1   1 S1_EXE  -3.719500
  28 H       0.7149   -1.4395   -1.1501 H1   1 S1_EXE  -3.064533
  29 H      -0.7607   -0.8124   -1.3975 H1   1 S1_EXE  -2.016558
  30 H       0.6590   -1.7058   -0.1511 H1   1 S1_EXE  -2.299532
