@<TRIPOS>MOLECULE
s1_exe_normalized | baseline=7.569199
   85 0 0 0
SMALL
GASTEIGER
@<TRIPOS>ATOM
    1 H     -2.1439  -3.7554  -1.3299 H1   1 S1_EXE    -0.363021
    2 H      0.0080  -0.0205   4.6771 H1   1 S1_EXE     1.000000
    3 H     -0.7121   1.5318   4.3527 H1   1 S1_EXE     0.938153
    4 H      1.1583   1.2458   4.3480 H1   1 S1_EXE     0.952908
    5 H     -1.7039   0.0914   4.3459 H1   1 S1_EXE     0.981881
    6 H      1.6548  -0.4754   4.3396 H1   1 S1_EXE     0.977421
    7 H     -0.8895  -1.4760   4.3390 H1   1 S1_EXE     0.940490
    8 H      0.7801  -2.0194   4.1305 H1   1 S1_EXE     0.890301
    9 H      0.4402   2.7186   3.7516 H1   1 S1_EXE     0.795015
   10 H      2.7240   0.7885   3.6881 H1   1 S1_EXE     0.925041
   11 H     -2.3529   1.5877   3.6860 H1   1 S1_EXE     0.887285
   12 H     -2.5142  -1.3360   3.6791 H1   1 S1_EXE     0.901345
   13 H      2.4481  -1.7969   3.5189 H1   1 S1_EXE     0.859042
   14 H     -0.5587  -3.0116   3.4953 H1   1 S1_EXE     0.737058
   15 H     -1.2493   2.9377   3.3734 H1   1 S1_EXE     0.734227
   16 H      2.1182   2.4202   3.3498 H1   1 S1_EXE     0.789738
   17 H     -3.3054   0.1918   3.2527 H1   1 S1_EXE     0.899976
   18 H      1.3535  -3.2387   3.0279 H1   1 S1_EXE     0.657333
   19 H      3.5396  -0.5672   2.9355 H1   1 S1_EXE     0.863800
   20 H     -2.2144  -2.8959   2.8565 H1   1 S1_EXE     0.683332
   21 H     -0.0374   3.8740   2.5222 H1   1 S1_EXE     0.490492
   22 H     -2.8006   2.7352   2.4557 H1   1 S1_EXE     0.654044
   23 H      3.5123   1.7577   2.4341 H1   1 S1_EXE     0.748941
   24 H     -3.7314  -1.2888   2.3996 H1   1 S1_EXE     0.776073
   25 H      1.6947   3.6789   2.2117 H1   1 S1_EXE     0.479780
   26 H     -0.0350  -4.0557   2.2014 H1   1 S1_EXE     0.408047
   27 H      2.8803  -2.8746   2.1748 H1   1 S1_EXE     0.598233
   28 H     -3.8759   1.3916   2.0753 H1   1 S1_EXE     0.729077
   29 H     -1.6383   3.8921   1.8380 H1   1 S1_EXE     0.380502
   30 H      4.2741   0.3706   1.6626 H1   1 S1_EXE     0.713366
   31 H      3.9853  -1.6513   1.5950 H1   1 S1_EXE     0.643074
   32 H     -1.6662  -3.9923   1.5590 H1   1 S1_EXE     0.311134
   33 H      1.6617  -4.0175   1.4925 H1   1 S1_EXE     0.293574
   34 H     -3.3364  -2.7882   1.4914 H1   1 S1_EXE     0.505111
   35 H      3.1262   3.0818   1.3511 H1   1 S1_EXE     0.438197
   36 H     -4.4104  -0.0958   1.2715 H1   1 S1_EXE     0.657820
   37 H      0.6232   4.4283   1.0092 H1   1 S1_EXE     0.101461
   38 H     -3.6264   2.6521   0.8979 H1   1 S1_EXE     0.418764
   39 H      4.1422   1.8281   0.6594 H1   1 S1_EXE     0.469585
   40 H      0.2178  -4.5349   0.5428 H1   1 S1_EXE    -0.035138
   41 H      3.4489  -2.9541   0.5315 H1   1 S1_EXE     0.300925
   42 H     -4.2270  -1.6690   0.4923 H1   1 S1_EXE     0.452144
   43 H     -2.4675   3.8317   0.2707 H1   1 S1_EXE     0.073954
   44 H      4.5114  -0.6487   0.2576 H1   1 S1_EXE     0.468462
   45 H      2.1284   4.0313   0.2283 H1   1 S1_EXE     0.015389
   46 H     -4.3860   1.2475   0.1188 H1   1 S1_EXE     0.410153
   47 H     -0.8579   4.4772   0.0060 H1   1 S1_EXE    -0.159621
   48 H      2.1506  -4.0085  -0.2001 H1   1 S1_EXE    -0.089728
   49 H     -3.3633  -3.0577  -0.2470 H1   1 S1_EXE     0.104881
   50 H      3.3932   2.9905  -0.4634 H1   1 S1_EXE     0.062560
   51 H     -4.4798  -0.3467  -0.6604 H1   1 S1_EXE     0.277829
   52 H      4.4001   0.8295  -0.7455 H1   1 S1_EXE     0.240731
   53 H      0.6976   4.4171  -0.7748 H1   1 S1_EXE    -0.374725
   54 H      4.0048  -1.9756  -0.8059 H1   1 S1_EXE     0.128911
   55 H     -3.4885   2.7774  -0.8368 H1   1 S1_EXE     0.001867
   56 H     -0.5120  -4.3783  -1.0499 H1   1 S1_EXE    -0.453341
   57 H     -1.8041   3.9145  -1.3713 H1   1 S1_EXE    -0.421410
   58 H     -3.8925  -1.8279  -1.3997 H1   1 S1_EXE    -0.014164
   59 H      2.1421   3.6836  -1.5064 H1   1 S1_EXE    -0.402786
   60 H      2.8728  -3.1309  -1.5375 H1   1 S1_EXE    -0.276673
   61 H     -4.0372   1.2424  -1.6008 H1   1 S1_EXE    -0.012726
   62 H      1.1446  -4.0536  -1.6297 H1   1 S1_EXE    -0.554345
   63 H      4.0987  -0.5323  -1.8091 H1   1 S1_EXE    -0.031568
   64 H      3.6160   1.9431  -1.8683 H1   1 S1_EXE    -0.169209
   65 H     -0.2310   3.9163  -2.2072 H1   1 S1_EXE    -0.731539
   66 H     -3.8180  -0.3632  -2.3495 H1   1 S1_EXE    -0.193461
   67 H     -2.6556   2.7221  -2.3991 H1   1 S1_EXE    -0.483930
   68 H     -2.7328  -2.5625  -2.4826 H1   1 S1_EXE    -0.481431
   69 H     -0.8550  -3.5818  -2.5723 H1   1 S1_EXE    -0.774074
   70 H      3.1753  -1.7934  -2.6204 H1   1 S1_EXE    -0.400641
   71 H      2.3030   2.5784  -2.8563 H1   1 S1_EXE    -0.626890
   72 H      1.7639  -2.9419  -2.8874 H1   1 S1_EXE    -0.724341
   73 H      3.3059   0.5681  -2.9718 H1   1 S1_EXE    -0.414427
   74 H     -3.0834   1.0851  -3.0622 H1   1 S1_EXE    -0.481782
   75 H     -1.1422   2.8547  -3.2503 H1   1 S1_EXE    -0.855219
   76 H      0.6488   2.8962  -3.3447 H1   1 S1_EXE    -0.907643
   77 H     -2.6305  -1.0799  -3.4476 H1   1 S1_EXE    -0.630594
   78 H     -1.3210  -2.2532  -3.6207 H1   1 S1_EXE    -0.876982
   79 H      2.3312  -0.6957  -3.7396 H1   1 S1_EXE    -0.720325
   80 H      0.4229  -2.2743  -3.8125 H1   1 S1_EXE    -0.967719
   81 H      1.8906   1.1676  -3.8648 H1   1 S1_EXE    -0.813006
   82 H     -1.5978   1.3112  -3.9475 H1   1 S1_EXE    -0.865578
   83 H      0.1420   1.4546  -4.2023 H1   1 S1_EXE    -1.000000
   84 H     -1.1411  -0.6064  -4.2559 H1   1 S1_EXE    -0.940007
   85 H      0.6952  -0.6103  -4.3480 H1   1 S1_EXE    -0.982526
