@<TRIPOS>MOLECULE
s1_exe_normalized | baseline=3.511993
  224 0 0 0
SMALL
GASTEIGER
@<TRIPOS>ATOM
    1 H     -8.9753  -0.9466   1.8736 H1   1 S1_EXE     0.349106
    2 H      3.3896   0.8313   5.1000 H1   1 S1_EXE     0.209858
    3 H      4.6447   0.2044  -4.8985 H1   1 S1_EXE     0.337175
    4 H      3.3740   2.2688  -4.8992 H1   1 S1_EXE     0.081233
    5 H      2.3032   0.1763  -4.9387 H1   1 S1_EXE     0.178660
    6 H      1.8870   1.7215   5.0875 H1   1 S1_EXE    -0.095682
    7 H      3.2495   2.7899   4.8108 H1   1 S1_EXE     0.014157
    8 H      1.5510   3.3948   4.6925 H1   1 S1_EXE    -0.367150
    9 H      2.9062   4.3671   4.1466 H1   1 S1_EXE    -0.180196
   10 H      0.0646   3.9767   3.9298 H1   1 S1_EXE    -0.870852
   11 H      1.4138   5.0737   3.5537 H1   1 S1_EXE    -0.560077
   12 H      2.9766   5.6026   2.9080 H1   1 S1_EXE    -0.253990
   13 H      0.1068   5.4568   2.4648 H1   1 S1_EXE    -1.000000
   14 H      1.6042   6.1766   1.9397 H1   1 S1_EXE    -0.590912
   15 H      3.1232   6.3831   1.0821 H1   1 S1_EXE    -0.269618
   16 H      0.2866   6.1805   0.7219 H1   1 S1_EXE    -0.985743
   17 H      1.8012   6.5800  -0.0424 H1   1 S1_EXE    -0.566156
   18 H      0.3762   6.1591  -1.0243 H1   1 S1_EXE    -0.951901
   19 H      3.1193   6.3482  -1.2326 H1   1 S1_EXE    -0.268616
   20 H      1.7031   6.0641  -2.2144 H1   1 S1_EXE    -0.559500
   21 H      0.0924   5.3740  -2.5818 H1   1 S1_EXE    -0.998819
   22 H      3.1762   5.4860  -3.0060 H1   1 S1_EXE    -0.208088
   23 H      1.4781   5.0274  -3.6125 H1   1 S1_EXE    -0.540083
   24 H      0.0483   4.0124  -3.8982 H1   1 S1_EXE    -0.881368
   25 H      3.2394   4.1870  -4.1941 H1   1 S1_EXE    -0.105097
   26 H      1.6073   3.5610  -4.6288 H1   1 S1_EXE    -0.372221
   27 H      1.1773   1.8908  -4.9883 H1   1 S1_EXE    -0.257813
   28 H      0.6325   0.4996   5.0820 H1   1 S1_EXE    -0.082656
   29 H      0.2023   2.1737   4.8507 H1   1 S1_EXE    -0.501745
   30 H     -0.1784   0.1297  -4.9303 H1   1 S1_EXE    -0.102801
   31 H      1.1288  -1.1777   5.0675 H1   1 S1_EXE     0.287344
   32 H      0.9634  -2.0187  -4.9060 H1   1 S1_EXE     0.415535
   33 H      2.8523  -1.4496   5.0562 H1   1 S1_EXE     0.359340
   34 H      1.7389  -2.7985   4.8457 H1   1 S1_EXE     0.477661
   35 H      3.4161  -3.2147   4.5607 H1   1 S1_EXE     0.453457
   36 H      2.5316  -4.5794   3.8742 H1   1 S1_EXE     0.565789
   37 H      3.3732  -5.4936   2.6239 H1   1 S1_EXE     0.563713
   38 H      3.3753  -5.9367  -1.7169 H1   1 S1_EXE     0.584441
   39 H      2.9172  -5.1661  -3.2239 H1   1 S1_EXE     0.574660
   40 H      3.3678  -3.8166  -4.2687 H1   1 S1_EXE     0.483695
   41 H      3.4179  -2.1418  -4.8785 H1   1 S1_EXE     0.402111
   42 H      4.8330   1.8183   5.0941 H1   1 S1_EXE     0.259947
   43 H      5.3948   0.1793   4.8304 H1   1 S1_EXE     0.359800
   44 H      6.5326   1.6281   4.7445 H1   1 S1_EXE     0.350690
   45 H      4.8799   3.5353   4.7307 H1   1 S1_EXE     0.170437
   46 H      6.6002   3.3435   4.3999 H1   1 S1_EXE     0.298395
   47 H      7.3329   0.2109   4.1020 H1   1 S1_EXE     0.396152
   48 H      7.9075   2.2841   3.8812 H1   1 S1_EXE     0.377331
   49 H      5.6880   4.8120   3.8614 H1   1 S1_EXE     0.182489
   50 H      7.3255   4.4963   3.2818 H1   1 S1_EXE     0.296755
   51 H      8.6437   0.8964   3.0981 H1   1 S1_EXE     0.410553
   52 H      4.7204   5.8902   2.8218 H1   1 S1_EXE     0.037320
   53 H      8.5937   3.4032   2.7295 H1   1 S1_EXE     0.371600
   54 H      6.4307   5.7471   2.4562 H1   1 S1_EXE     0.204185
   55 H      9.3670   1.9829   1.9379 H1   1 S1_EXE     0.410833
   56 H      8.1777   4.8704   1.7968 H1   1 S1_EXE     0.322222
   57 H      9.3144   0.2576   1.5638 H1   1 S1_EXE     0.416828
   58 H      5.3005   6.5298   1.3096 H1   1 S1_EXE     0.078728
   59 H      9.2552   3.5670   1.0986 H1   1 S1_EXE     0.383850
   60 H      7.1505   6.0048   0.8863 H1   1 S1_EXE     0.241723
   61 H      9.7493   1.4658   0.3103 H1   1 S1_EXE     0.419272
   62 H      8.5501   4.9412   0.0947 H1   1 S1_EXE     0.333678
   63 H      4.4913   6.7348  -0.2207 H1   1 S1_EXE    -0.028201
   64 H      6.2247   6.4687  -0.5235 H1   1 S1_EXE     0.165052
   65 H      9.5487   2.9966  -0.5426 H1   1 S1_EXE     0.399476
   66 H      9.4708   0.2413  -0.9595 H1   1 S1_EXE     0.417737
   67 H      7.6435   5.5886  -1.2437 H1   1 S1_EXE     0.279687
   68 H      8.7722   4.2483  -1.5245 H1   1 S1_EXE     0.357308
   69 H      5.0686   6.3868  -1.8262 H1   1 S1_EXE     0.058621
   70 H      9.4178   1.8021  -1.8344 H1   1 S1_EXE     0.413340
   71 H      6.4828   5.6457  -2.5821 H1   1 S1_EXE     0.211193
   72 H      8.8486   0.3115  -2.5903 H1   1 S1_EXE     0.413464
   73 H      8.6559   3.0568  -2.8384 H1   1 S1_EXE     0.380505
   74 H      7.5732   4.3938  -3.1565 H1   1 S1_EXE     0.310983
   75 H      4.9027   5.4413  -3.3941 H1   1 S1_EXE     0.079008
   76 H      8.2073   1.5860  -3.6655 H1   1 S1_EXE     0.396692
   77 H      6.1014   4.3288  -4.0891 H1   1 S1_EXE     0.232725
   78 H      7.2645   2.9904  -4.1736 H1   1 S1_EXE     0.338917
   79 H      7.1968   0.2263  -4.1927 H1   1 S1_EXE     0.394024
   80 H      4.7252   3.4317  -4.7754 H1   1 S1_EXE     0.161080
   81 H      6.3397   1.6316  -4.8160 H1   1 S1_EXE     0.343558
   82 H      4.7056  -1.4014   5.0992 H1   1 S1_EXE     0.357278
   83 H      6.4209  -1.3319   4.8022 H1   1 S1_EXE     0.355926
   84 H      5.5164  -2.9144   4.7727 H1   1 S1_EXE     0.372511
   85 H      7.1971  -2.8062   4.1902 H1   1 S1_EXE     0.351231
   86 H      4.6941  -4.3330   4.1082 H1   1 S1_EXE     0.429015
   87 H      8.1022  -1.3264   3.8027 H1   1 S1_EXE     0.359657
   88 H      6.4263  -4.3167   3.7428 H1   1 S1_EXE     0.375848
   89 H      8.5130  -2.8542   3.0196 H1   1 S1_EXE     0.344632
   90 H      5.3082  -5.4610   2.9020 H1   1 S1_EXE     0.432584
   91 H      7.7982  -4.4059   2.6183 H1   1 S1_EXE     0.354501
   92 H      9.1875  -1.3478   2.4299 H1   1 S1_EXE     0.362764
   93 H      6.7429  -5.5984   1.8624 H1   1 S1_EXE     0.388362
   94 H      8.9769  -3.6514   1.5074 H1   1 S1_EXE     0.341444
   95 H      4.5486  -6.1829   1.4999 H1   1 S1_EXE     0.493687
   96 H      9.6581  -2.0899   0.9261 H1   1 S1_EXE     0.351413
   97 H      8.0860  -5.0251   0.8805 H1   1 S1_EXE     0.356252
   98 H      5.9507  -6.2359   0.4467 H1   1 S1_EXE     0.424767
   99 H      3.4925  -6.2638   0.1063 H1   1 S1_EXE     0.587341
  100 H      9.3440  -3.4168  -0.2064 H1   1 S1_EXE     0.340696
  101 H      7.2886  -5.6700  -0.5708 H1   1 S1_EXE     0.377006
  102 H      9.7490  -1.4847  -0.7248 H1   1 S1_EXE     0.362074
  103 H      4.9039  -6.3182  -0.9469 H1   1 S1_EXE     0.475587
  104 H      8.4427  -4.5428  -1.2591 H1   1 S1_EXE     0.348413
  105 H      9.2256  -2.7922  -1.8352 H1   1 S1_EXE     0.343815
  106 H      6.2164  -5.7676  -1.9645 H1   1 S1_EXE     0.406118
  107 H      7.4057  -4.6927  -2.6968 H1   1 S1_EXE     0.362723
  108 H      4.6829  -5.5498  -2.8357 H1   1 S1_EXE     0.465482
  109 H      8.8904  -1.4143  -2.9104 H1   1 S1_EXE     0.360392
  110 H      8.2209  -3.1130  -3.2236 H1   1 S1_EXE     0.345099
  111 H      5.9172  -4.6230  -3.6834 H1   1 S1_EXE     0.393219
  112 H      7.6524  -1.7033  -4.1426 H1   1 S1_EXE     0.353803
  113 H      6.7699  -3.2003  -4.2627 H1   1 S1_EXE     0.357515
  114 H      5.0635  -3.4136  -4.6324 H1   1 S1_EXE     0.392271
  115 H      6.1651  -1.0698  -4.8801 H1   1 S1_EXE     0.356740
  116 H     -1.3281   0.8113   5.0999 H1   1 S1_EXE    -0.315739
  117 H     -1.0020   2.8213  -4.6841 H1   1 S1_EXE    -0.743737
  118 H     -2.5577   0.2191  -4.9135 H1   1 S1_EXE    -0.145174
  119 H     -1.4185  -0.9291   5.0907 H1   1 S1_EXE     0.167820
  120 H     -2.4976  -2.2571   4.7126 H1   1 S1_EXE     0.546662
  121 H     -2.5587  -2.6051  -4.5627 H1   1 S1_EXE     0.631852
  122 H     -0.9897  -1.7704  -4.9494 H1   1 S1_EXE     0.376929
  123 H     -0.2421  -2.7902   5.0999 H1   1 S1_EXE     0.496450
  124 H     -1.4380  -4.0227   4.7988 H1   1 S1_EXE     0.644527
  125 H      0.5169  -4.3295   4.7947 H1   1 S1_EXE     0.580233
  126 H     -0.6668  -5.5129   4.2792 H1   1 S1_EXE     0.662892
  127 H     -3.0435  -3.8576   4.1259 H1   1 S1_EXE     0.795446
  128 H      1.0924  -5.7446   3.9190 H1   1 S1_EXE     0.614584
  129 H     -2.3607  -5.4427   3.7961 H1   1 S1_EXE     0.765044
  130 H     -0.1240  -6.7725   3.1579 H1   1 S1_EXE     0.669521
  131 H     -3.8312  -4.9100   2.9333 H1   1 S1_EXE     0.930205
  132 H     -1.8791  -6.7488   2.7430 H1   1 S1_EXE     0.749537
  133 H      1.9175  -6.5747   2.6142 H1   1 S1_EXE     0.616411
  134 H     -3.3819  -6.3023   1.9294 H1   1 S1_EXE     0.866013
  135 H      0.6347  -7.4803   1.7430 H1   1 S1_EXE     0.658177
  136 H     -1.0719  -7.6032   1.4045 H1   1 S1_EXE     0.716952
  137 H      2.1757  -7.1517   0.9614 H1   1 S1_EXE     0.621472
  138 H     -2.6311  -7.2310   0.6623 H1   1 S1_EXE     0.800966
  139 H     -4.3682  -5.7145   0.6155 H1   1 S1_EXE     1.000000
  140 H      0.2123  -7.8479   0.0934 H1   1 S1_EXE     0.674576
  141 H     -1.4211  -7.7085  -0.4979 H1   1 S1_EXE     0.733474
  142 H     -3.5434  -6.5987  -0.7093 H1   1 S1_EXE     0.880237
  143 H      1.7310  -7.4132  -0.7239 H1   1 S1_EXE     0.633010
  144 H     -0.0949  -7.6024  -1.6224 H1   1 S1_EXE     0.680980
  145 H     -4.2313  -5.4111  -1.7841 H1   1 S1_EXE     0.986338
  146 H     -2.2710  -7.0532  -1.8915 H1   1 S1_EXE     0.776207
  147 H      1.9274  -6.7493  -2.3307 H1   1 S1_EXE     0.619222
  148 H     -3.0196  -5.8796  -2.9442 H1   1 S1_EXE     0.829801
  149 H     -0.8923  -6.8420  -3.0024 H1   1 S1_EXE     0.700217
  150 H      0.7205  -6.3212  -3.5292 H1   1 S1_EXE     0.636160
  151 H     -3.5832  -4.3266  -3.5322 H1   1 S1_EXE     0.889548
  152 H     -1.6690  -5.5820  -4.0110 H1   1 S1_EXE     0.717574
  153 H      1.5438  -4.9155  -4.2648 H1   1 S1_EXE     0.584042
  154 H     -0.1740  -4.8974  -4.6344 H1   1 S1_EXE     0.623535
  155 H     -2.8268   1.7123   5.0945 H1   1 S1_EXE    -0.428333
  156 H     -1.5108   2.8426   4.8191 H1   1 S1_EXE    -0.701139
  157 H     -3.2449   3.3701   4.7417 H1   1 S1_EXE    -0.608669
  158 H     -4.4426   1.1338   4.7415 H1   1 S1_EXE    -0.191175
  159 H     -4.8871   2.7938   4.4107 H1   1 S1_EXE    -0.412655
  160 H     -5.3654   4.1924   3.4293 H1   1 S1_EXE    -0.535319
  161 H     -6.6490   3.2024   2.6885 H1   1 S1_EXE    -0.340392
  162 H     -6.9108   4.0927   1.1847 H1   1 S1_EXE    -0.428246
  163 H     -7.1412   3.9010  -0.5426 H1   1 S1_EXE    -0.393367
  164 H     -6.4880   4.1210  -2.1702 H1   1 S1_EXE    -0.455801
  165 H     -6.3265   2.7985  -3.2947 H1   1 S1_EXE    -0.309831
  166 H     -5.2877   4.1894  -3.4926 H1   1 S1_EXE    -0.540243
  167 H     -1.6424   4.4237  -4.1314 H1   1 S1_EXE    -0.852342
  168 H     -3.6987   4.2694  -4.2096 H1   1 S1_EXE    -0.662384
  169 H     -5.4014   1.6503  -4.2766 H1   1 S1_EXE    -0.206432
  170 H     -4.0373   2.6218  -4.7921 H1   1 S1_EXE    -0.456698
  171 H     -6.1580   1.6911   3.8572 H1   1 S1_EXE    -0.142167
  172 H     -7.5489   1.7072   2.4803 H1   1 S1_EXE    -0.034799
  173 H     -7.8730   2.6273   1.0058 H1   1 S1_EXE    -0.150042
  174 H     -8.2303   1.8151  -0.5162 H1   1 S1_EXE    -0.004907
  175 H     -7.5130   2.7479  -1.8456 H1   1 S1_EXE    -0.195294
  176 H     -3.7464  -0.6534   5.0999 H1   1 S1_EXE     0.183470
  177 H     -5.4648  -0.5412   4.8037 H1   1 S1_EXE     0.231497
  178 H     -4.6473  -2.1146   4.7976 H1   1 S1_EXE     0.490775
  179 H     -4.7981  -3.6595   3.9699 H1   1 S1_EXE     0.730660
  180 H     -6.8935   0.0459   3.9617 H1   1 S1_EXE     0.195145
  181 H     -7.8116   1.1636  -2.5143 H1   1 S1_EXE     0.070546
  182 H     -7.1790   0.0128  -3.7237 H1   1 S1_EXE     0.212863
  183 H     -5.2521  -3.7009  -3.7887 H1   1 S1_EXE     0.721596
  184 H     -6.4226  -1.4582  -4.2673 H1   1 S1_EXE     0.403777
  185 H     -4.2974  -2.5338  -4.7013 H1   1 S1_EXE     0.566422
  186 H     -5.4906  -0.0578  -4.7608 H1   1 S1_EXE     0.145291
  187 H     -3.9705  -0.8458  -5.0910 H1   1 S1_EXE     0.235488
  188 H     -1.9454   4.4118   4.2013 H1   1 S1_EXE    -0.821978
  189 H     -3.6171   4.8961   3.9472 H1   1 S1_EXE    -0.680414
  190 H     -2.3302   5.9028   3.3272 H1   1 S1_EXE    -0.774484
  191 H     -4.6873   5.7459   2.8620 H1   1 S1_EXE    -0.620768
  192 H     -3.3712   6.7491   2.1891 H1   1 S1_EXE    -0.702142
  193 H     -1.2294   6.5555   2.1404 H1   1 S1_EXE    -0.843564
  194 H     -5.9495   5.5228   1.6841 H1   1 S1_EXE    -0.544456
  195 H     -4.7782   6.6984   1.1461 H1   1 S1_EXE    -0.626127
  196 H     -2.3011   7.2592   0.8980 H1   1 S1_EXE    -0.759585
  197 H     -6.4407   5.4098   0.0161 H1   1 S1_EXE    -0.514528
  198 H     -3.7160   7.2469  -0.1850 H1   1 S1_EXE    -0.682123
  199 H     -0.9561   7.0162  -0.1902 H1   1 S1_EXE    -0.850644
  200 H     -5.2452   6.5269  -0.6756 H1   1 S1_EXE    -0.602120
  201 H     -2.3564   7.1714  -1.2732 H1   1 S1_EXE    -0.757556
  202 H     -3.9829   6.7692  -1.8530 H1   1 S1_EXE    -0.668240
  203 H     -5.5461   5.6342  -2.1631 H1   1 S1_EXE    -0.569551
  204 H     -1.3258   6.3987  -2.4505 H1   1 S1_EXE    -0.840330
  205 H     -2.9464   6.1137  -3.1289 H1   1 S1_EXE    -0.730560
  206 H     -6.3184  -1.9779   4.2378 H1   1 S1_EXE     0.470893
  207 H     -6.5299  -3.5581   3.5101 H1   1 S1_EXE     0.626808
  208 H     -7.7957  -1.4492   3.4511 H1   1 S1_EXE     0.395618
  209 H     -5.5824  -4.7851   2.7121 H1   1 S1_EXE     0.794795
  210 H     -7.9933  -3.0490   2.7082 H1   1 S1_EXE     0.533220
  211 H     -7.2044  -4.4864   2.0791 H1   1 S1_EXE     0.666417
  212 H     -8.6766   0.7373   1.4893 H1   1 S1_EXE     0.168983
  213 H     -8.9608  -2.6195   1.2938 H1   1 S1_EXE     0.481480
  214 H     -6.0541  -5.4348   1.1557 H1   1 S1_EXE     0.803179
  215 H     -8.2629  -4.1120   0.6988 H1   1 S1_EXE     0.597971
  216 H     -9.3043  -0.3772   0.2468 H1   1 S1_EXE     0.299976
  217 H     -7.1507  -5.1157  -0.2000 H1   1 S1_EXE     0.710014
  218 H     -9.2897  -2.0604  -0.3482 H1   1 S1_EXE     0.437423
  219 H     -8.5986  -3.5789  -0.9432 H1   1 S1_EXE     0.553871
  220 H     -8.9018   0.3820  -1.2966 H1   1 S1_EXE     0.216689
  221 H     -6.0084  -5.3395  -1.4975 H1   1 S1_EXE     0.800373
  222 H     -8.9679  -1.3385  -1.9010 H1   1 S1_EXE     0.382933
  223 H     -7.4145  -4.4077  -1.9464 H1   1 S1_EXE     0.651129
  224 H     -8.2183  -2.9177  -2.5149 H1   1 S1_EXE     0.517696
