@<TRIPOS>MOLECULE
water_hard_tm.mol2
     37 0 0 0
SMALL
GASTEIGER
@<TRIPOS>ATOM
   1    H    0.1434   -0.3688    1.5897  H1  1  HARD    0.991880
   2    H   -0.6038    0.2979    1.4849  H1  1  HARD    1.079813
   3    H    0.8192    0.2385    1.3801  H1  1  HARD    1.155635
   4    H   -0.5142   -0.8464    1.2753  H1  1  HARD    0.987928
   5    H   -0.2141    1.0797    1.1704  H1  1  HARD    0.868247
   6    H    0.9606   -0.7054    1.0656  H1  1  HARD    1.194162
   7    H   -1.2603   -0.1369    0.9608  H1  1  HARD    1.396047
   8    H    0.8787    0.9999    0.8560  H1  1  HARD    1.101830
   9    H    0.0286   -1.3835    0.7511  H1  1  HARD    0.614905
  10    H   -0.9853    1.0319    0.6463  H1  1  HARD    1.138015
  11    H    1.4578   -0.0976    0.5415  H1  1  HARD    1.600324
  12    H   -1.1612   -0.9290    0.4366  H1  1  HARD    1.277099
  13    H   -1.4757    0.3642    0.1222  H1  1  HARD    1.709719
  14    H    1.3310    0.7266    0.0173  H1  1  HARD    1.483756
  15    H    1.3358   -0.5918   -0.2972  H1  1  HARD    1.539700
  16    H   -1.3523   -0.4550   -0.4020  H1  1  HARD    1.614584
  17    H    1.1785    0.1775   -0.8213  H1  1  HARD    1.420290
  18    H   -0.6730    0.0172   -1.2406  H1  1  HARD    0.877982
  19    H   -0.2021    1.7905    0.1262  H1  1  HARD   -0.629046
  20    H    0.7811    1.6599   -0.2738  H1  1  HARD   -0.535316
  21    H   -0.8274    1.6376   -0.5405  H1  1  HARD   -0.694762
  22    H    1.1806    0.6920   -0.6738  H1  1  HARD    0.956758
  23    H    0.1700    1.8635   -0.9405  H1  1  HARD   -1.479096
  24    H   -0.9222    0.9986   -1.2071  H1  1  HARD   -0.387755
  25    H    0.7285    1.1688   -1.3405  H1  1  HARD   -0.759349
  26    H   -0.2146    0.1434   -1.4738  H1  1  HARD    0.361842
  27    H   -0.1580    1.1324   -1.6071  H1  1  HARD   -1.006507
  28    H   -0.4931   -1.5829    0.2595  H1  1  HARD   -0.005079
  29    H    0.8911   -1.4254   -0.0071  H1  1  HARD    0.194531
  30    H    0.0248   -1.9690   -0.4071  H1  1  HARD   -1.384134
  31    H    1.1806   -0.8501   -0.6738  H1  1  HARD    0.605127
  32    H   -0.9002   -1.4912   -0.8071  H1  1  HARD   -0.670134
  33    H    0.5758   -1.6362   -1.0738  H1  1  HARD   -1.142964
  34    H   -0.9222   -0.5435   -1.2071  H1  1  HARD    0.315634
  35    H    0.7285   -0.3734   -1.3405  H1  1  HARD    0.349138
  36    H   -0.2146   -1.3987   -1.4738  H1  1  HARD   -1.183617
  37    H   -0.1580   -0.4097   -1.6071  H1  1  HARD   -0.137859
