@<TRIPOS>MOLECULE
water_nfl_tm.mol2
     37 0 0 0
SMALL
GASTEIGER
@<TRIPOS>ATOM
   1    H    0.1434   -0.3688    1.5897  H1  1  NFL  283.842346
   2    H   -0.6038    0.2979    1.4849  H1  1  NFL  285.081753
   3    H    0.8192    0.2385    1.3801  H1  1  NFL  286.262420
   4    H   -0.5142   -0.8464    1.2753  H1  1  NFL  285.445968
   5    H   -0.2141    1.0797    1.1704  H1  1  NFL  285.098942
   6    H    0.9606   -0.7054    1.0656  H1  1  NFL  288.242489
   7    H   -1.2603   -0.1369    0.9608  H1  1  NFL  290.539452
   8    H    0.8787    0.9999    0.8560  H1  1  NFL  288.848897
   9    H    0.0286   -1.3835    0.7511  H1  1  NFL  286.823809
  10    H   -0.9853    1.0319    0.6463  H1  1  NFL  290.716401
  11    H    1.4578   -0.0976    0.5415  H1  1  NFL  294.417311
  12    H   -1.1612   -0.9290    0.4366  H1  1  NFL  293.292979
  13    H   -1.4757    0.3642    0.1222  H1  1  NFL  297.733652
  14    H    1.3310    0.7266    0.0173  H1  1  NFL  297.598413
  15    H    1.3358   -0.5918   -0.2972  H1  1  NFL  299.572519
  16    H   -1.3523   -0.4550   -0.4020  H1  1  NFL  300.072638
  17    H    1.1785    0.1775   -0.8213  H1  1  NFL  299.055137
  18    H   -0.6730    0.0172   -1.2406  H1  1  NFL  296.612830
  19    H   -0.2021    1.7905    0.1262  H1  1  NFL  283.262601
  20    H    0.7811    1.6599   -0.2738  H1  1  NFL  284.558900
  21    H   -0.8274    1.6376   -0.5405  H1  1  NFL  284.004609
  22    H    1.1806    0.6920   -0.6738  H1  1  NFL  297.045549
  23    H    0.1700    1.8635   -0.9405  H1  1  NFL  280.714617
  24    H   -0.9222    0.9986   -1.2071  H1  1  NFL  287.449089
  25    H    0.7285    1.1688   -1.3405  H1  1  NFL  284.796179
  26    H   -0.2146    0.1434   -1.4738  H1  1  NFL  293.102099
  27    H   -0.1580    1.1324   -1.6071  H1  1  NFL  283.314503
  28    H   -0.4931   -1.5829    0.2595  H1  1  NFL  286.531706
  29    H    0.8911   -1.4254   -0.0071  H1  1  NFL  288.959553
  30    H    0.0248   -1.9690   -0.4071  H1  1  NFL  281.023603
  31    H    1.1806   -0.8501   -0.6738  H1  1  NFL  294.408754
  32    H   -0.9002   -1.4912   -0.8071  H1  1  NFL  284.579633
  33    H    0.5758   -1.6362   -1.0738  H1  1  NFL  281.921512
  34    H   -0.9222   -0.5435   -1.2071  H1  1  NFL  292.199651
  35    H    0.7285   -0.3734   -1.3405  H1  1  NFL  292.382521
  36    H   -0.2146   -1.3987   -1.4738  H1  1  NFL  282.003384
  37    H   -0.1580   -0.4097   -1.6071  H1  1  NFL  288.924540
