@<TRIPOS>MOLECULE
water_efl_tm.mol2
     37 0 0 0
SMALL
GASTEIGER
@<TRIPOS>ATOM
   1    H    0.1434   -0.3688    1.5897  H1  1  EFL   -9.805765
   2    H   -0.6038    0.2979    1.4849  H1  1  EFL  -10.049545
   3    H    0.8192    0.2385    1.3801  H1  1  EFL  -10.291207
   4    H   -0.5142   -0.8464    1.2753  H1  1  EFL  -10.123085
   5    H   -0.2141    1.0797    1.1704  H1  1  EFL  -10.052996
   6    H    0.9606   -0.7054    1.0656  H1  1  EFL  -10.718740
   7    H   -1.2603   -0.1369    0.9608  H1  1  EFL  -11.253068
   8    H    0.8787    0.9999    0.8560  H1  1  EFL  -10.855619
   9    H    0.0286   -1.3835    0.7511  H1  1  EFL  -10.409506
  10    H   -0.9853    1.0319    0.6463  H1  1  EFL  -11.296079
  11    H    1.4578   -0.0976    0.5415  H1  1  EFL  -12.263510
  12    H   -1.1612   -0.9290    0.4366  H1  1  EFL  -11.955189
  13    H   -1.4757    0.3642    0.1222  H1  1  EFL  -13.256918
  14    H    1.3310    0.7266    0.0173  H1  1  EFL  -13.213735
  15    H    1.3358   -0.5918   -0.2972  H1  1  EFL  -13.869148
  16    H   -1.3523   -0.4550   -0.4020  H1  1  EFL  -14.044170
  17    H    1.1785    0.1775   -0.8213  H1  1  EFL  -13.692024
  18    H   -0.6730    0.0172   -1.2406  H1  1  EFL  -12.906197
  19    H   -0.2021    1.7905    0.1262  H1  1  EFL   -9.695051
  20    H    0.7811    1.6599   -0.2738  H1  1  EFL   -9.945502
  21    H   -0.8274    1.6376   -0.5405  H1  1  EFL   -9.837125
  22    H    1.1806    0.6920   -0.6738  H1  1  EFL  -13.039690
  23    H    0.1700    1.8635   -0.9405  H1  1  EFL   -9.231836
  24    H   -0.9222    0.9986   -1.2071  H1  1  EFL  -10.543948
  25    H    0.7285    1.1688   -1.3405  H1  1  EFL   -9.992497
  26    H   -0.2146    0.1434   -1.4738  H1  1  EFL  -11.904151
  27    H   -0.1580    1.1324   -1.6071  H1  1  EFL   -9.704879
  28    H   -0.4931   -1.5829    0.2595  H1  1  EFL  -10.347673
  29    H    0.8911   -1.4254   -0.0071  H1  1  EFL  -10.880912
  30    H    0.0248   -1.9690   -0.4071  H1  1  EFL   -9.286067
  31    H    1.1806   -0.8501   -0.6738  H1  1  EFL  -12.261113
  32    H   -0.9002   -1.4912   -0.8071  H1  1  EFL   -9.949594
  33    H    0.5758   -1.6362   -1.0738  H1  1  EFL   -9.446640
  34    H   -0.9222   -0.5435   -1.2071  H1  1  EFL  -11.667770
  35    H    0.7285   -0.3734   -1.3405  H1  1  EFL  -11.715025
  36    H   -0.2146   -1.3987   -1.4738  H1  1  EFL   -9.461506
  37    H   -0.1580   -0.4097   -1.6071  H1  1  EFL  -10.872898
