@<TRIPOS>MOLECULE
s2_exe | baseline=2.928953
  224 0 0 0
SMALL
GASTEIGER
@<TRIPOS>ATOM
    1 H     -8.9753  -0.9466   1.8736 H1   1 S2_EXE     0.013861
    2 H      3.3896   0.8313   5.1000 H1   1 S2_EXE    -0.011581
    3 H      4.6447   0.2044  -4.8985 H1   1 S2_EXE    -0.012631
    4 H      3.3740   2.2688  -4.8992 H1   1 S2_EXE    -0.011127
    5 H      2.3032   0.1763  -4.9387 H1   1 S2_EXE    -0.010997
    6 H      1.8870   1.7215   5.0875 H1   1 S2_EXE    -0.009418
    7 H      3.2495   2.7899   4.8108 H1   1 S2_EXE    -0.010612
    8 H      1.5510   3.3948   4.6925 H1   1 S2_EXE    -0.007916
    9 H      2.9062   4.3671   4.1466 H1   1 S2_EXE    -0.009130
   10 H      0.0646   3.9767   3.9298 H1   1 S2_EXE    -0.004903
   11 H      1.4138   5.0737   3.5537 H1   1 S2_EXE    -0.006438
   12 H      2.9766   5.6026   2.9080 H1   1 S2_EXE    -0.008434
   13 H      0.1068   5.4568   2.4648 H1   1 S2_EXE    -0.003200
   14 H      1.6042   6.1766   1.9397 H1   1 S2_EXE    -0.005837
   15 H      3.1232   6.3831   1.0821 H1   1 S2_EXE    -0.008155
   16 H      0.2866   6.1805   0.7219 H1   1 S2_EXE    -0.002701
   17 H      1.8012   6.5800  -0.0424 H1   1 S2_EXE    -0.005864
   18 H      0.3762   6.1591  -1.0243 H1   1 S2_EXE    -0.002998
   19 H      3.1193   6.3482  -1.2326 H1   1 S2_EXE    -0.008171
   20 H      1.7031   6.0641  -2.2144 H1   1 S2_EXE    -0.006117
   21 H      0.0924   5.3740  -2.5818 H1   1 S2_EXE    -0.003274
   22 H      3.1762   5.4860  -3.0060 H1   1 S2_EXE    -0.008776
   23 H      1.4781   5.0274  -3.6125 H1   1 S2_EXE    -0.006586
   24 H      0.0483   4.0124  -3.8982 H1   1 S2_EXE    -0.004831
   25 H      3.2394   4.1870  -4.1941 H1   1 S2_EXE    -0.009672
   26 H      1.6073   3.5610  -4.6288 H1   1 S2_EXE    -0.007885
   27 H      1.1773   1.8908  -4.9883 H1   1 S2_EXE    -0.008252
   28 H      0.6325   0.4996   5.0820 H1   1 S2_EXE    -0.006790
   29 H      0.2023   2.1737   4.8507 H1   1 S2_EXE    -0.006087
   30 H     -0.1784   0.1297  -4.9303 H1   1 S2_EXE    -0.004280
   31 H      1.1288  -1.1777   5.0675 H1   1 S2_EXE    -0.006384
   32 H      0.9634  -2.0187  -4.9060 H1   1 S2_EXE    -0.004731
   33 H      2.8523  -1.4496   5.0562 H1   1 S2_EXE    -0.009857
   34 H      1.7389  -2.7985   4.8457 H1   1 S2_EXE    -0.005662
   35 H      3.4161  -3.2147   4.5607 H1   1 S2_EXE    -0.008841
   36 H      2.5316  -4.5794   3.8742 H1   1 S2_EXE    -0.005416
   37 H      3.3732  -5.4936   2.6239 H1   1 S2_EXE    -0.006442
   38 H      3.3753  -5.9367  -1.7169 H1   1 S2_EXE    -0.006046
   39 H      2.9172  -5.1661  -3.2239 H1   1 S2_EXE    -0.005713
   40 H      3.3678  -3.8166  -4.2687 H1   1 S2_EXE    -0.008093
   41 H      3.4179  -2.1418  -4.8785 H1   1 S2_EXE    -0.010074
   42 H      4.8330   1.8183   5.0941 H1   1 S2_EXE    -0.011077
   43 H      5.3948   0.1793   4.8304 H1   1 S2_EXE    -0.012437
   44 H      6.5326   1.6281   4.7445 H1   1 S2_EXE    -0.010872
   45 H      4.8799   3.5353   4.7307 H1   1 S2_EXE    -0.009915
   46 H      6.6002   3.3435   4.3999 H1   1 S2_EXE    -0.009794
   47 H      7.3329   0.2109   4.1020 H1   1 S2_EXE    -0.011940
   48 H      7.9075   2.2841   3.8812 H1   1 S2_EXE    -0.010227
   49 H      5.6880   4.8120   3.8614 H1   1 S2_EXE    -0.009167
   50 H      7.3255   4.4963   3.2818 H1   1 S2_EXE    -0.009172
   51 H      8.6437   0.8964   3.0981 H1   1 S2_EXE    -0.011078
   52 H      4.7204   5.8902   2.8218 H1   1 S2_EXE    -0.008711
   53 H      8.5937   3.4032   2.7295 H1   1 S2_EXE    -0.009544
   54 H      6.4307   5.7471   2.4562 H1   1 S2_EXE    -0.008732
   55 H      9.3670   1.9829   1.9379 H1   1 S2_EXE    -0.010213
   56 H      8.1777   4.8704   1.7968 H1   1 S2_EXE    -0.008952
   57 H      9.3144   0.2576   1.5638 H1   1 S2_EXE    -0.011493
   58 H      5.3005   6.5298   1.3096 H1   1 S2_EXE    -0.008453
   59 H      9.2552   3.5670   1.0986 H1   1 S2_EXE    -0.009400
   60 H      7.1505   6.0048   0.8863 H1   1 S2_EXE    -0.008604
   61 H      9.7493   1.4658   0.3103 H1   1 S2_EXE    -0.010484
   62 H      8.5501   4.9412   0.0947 H1   1 S2_EXE    -0.008897
   63 H      4.4913   6.7348  -0.2207 H1   1 S2_EXE    -0.008317
   64 H      6.2247   6.4687  -0.5235 H1   1 S2_EXE    -0.008475
   65 H      9.5487   2.9966  -0.5426 H1   1 S2_EXE    -0.009638
   66 H      9.4708   0.2413  -0.9595 H1   1 S2_EXE    -0.011475
   67 H      7.6435   5.5886  -1.2437 H1   1 S2_EXE    -0.008723
   68 H      8.7722   4.2483  -1.5245 H1   1 S2_EXE    -0.009151
   69 H      5.0686   6.3868  -1.8262 H1   1 S2_EXE    -0.008505
   70 H      9.4178   1.8021  -1.8344 H1   1 S2_EXE    -0.010317
   71 H      6.4828   5.6457  -2.5821 H1   1 S2_EXE    -0.008768
   72 H      8.8486   0.3115  -2.5903 H1   1 S2_EXE    -0.011540
   73 H      8.6559   3.0568  -2.8384 H1   1 S2_EXE    -0.009708
   74 H      7.5732   4.3938  -3.1565 H1   1 S2_EXE    -0.009195
   75 H      4.9027   5.4413  -3.3941 H1   1 S2_EXE    -0.008918
   76 H      8.2073   1.5860  -3.6655 H1   1 S2_EXE    -0.010636
   77 H      6.1014   4.3288  -4.0891 H1   1 S2_EXE    -0.009356
   78 H      7.2645   2.9904  -4.1736 H1   1 S2_EXE    -0.009903
   79 H      7.1968   0.2263  -4.1927 H1   1 S2_EXE    -0.011953
   80 H      4.7252   3.4317  -4.7754 H1   1 S2_EXE    -0.010000
   81 H      6.3397   1.6316  -4.8160 H1   1 S2_EXE    -0.010904
   82 H      4.7056  -1.4014   5.0992 H1   1 S2_EXE    -0.011010
   83 H      6.4209  -1.3319   4.8022 H1   1 S2_EXE    -0.010950
   84 H      5.5164  -2.9144   4.7727 H1   1 S2_EXE    -0.009767
   85 H      7.1971  -2.8062   4.1902 H1   1 S2_EXE    -0.009961
   86 H      4.6941  -4.3330   4.1082 H1   1 S2_EXE    -0.008469
   87 H      8.1022  -1.3264   3.8027 H1   1 S2_EXE    -0.010801
   88 H      6.4263  -4.3167   3.7428 H1   1 S2_EXE    -0.008992
   89 H      8.5130  -2.8542   3.0196 H1   1 S2_EXE    -0.009936
   90 H      5.3082  -5.4610   2.9020 H1   1 S2_EXE    -0.007956
   91 H      7.7982  -4.4059   2.6183 H1   1 S2_EXE    -0.009133
   92 H      9.1875  -1.3478   2.4299 H1   1 S2_EXE    -0.010665
   93 H      6.7429  -5.5984   1.8624 H1   1 S2_EXE    -0.008362
   94 H      8.9769  -3.6514   1.5074 H1   1 S2_EXE    -0.009544
   95 H      4.5486  -6.1829   1.4999 H1   1 S2_EXE    -0.007044
   96 H      9.6581  -2.0899   0.9261 H1   1 S2_EXE    -0.010241
   97 H      8.0860  -5.0251   0.8805 H1   1 S2_EXE    -0.008868
   98 H      5.9507  -6.2359   0.4467 H1   1 S2_EXE    -0.007781
   99 H      3.4925  -6.2638   0.1063 H1   1 S2_EXE    -0.005937
  100 H      9.3440  -3.4168  -0.2064 H1   1 S2_EXE    -0.009646
  101 H      7.2886  -5.6700  -0.5708 H1   1 S2_EXE    -0.008449
  102 H      9.7490  -1.4847  -0.7248 H1   1 S2_EXE    -0.010522
  103 H      4.9039  -6.3182  -0.9469 H1   1 S2_EXE    -0.007201
  104 H      8.4427  -4.5428  -1.2591 H1   1 S2_EXE    -0.009119
  105 H      9.2256  -2.7922  -1.8352 H1   1 S2_EXE    -0.009940
  106 H      6.2164  -5.7676  -1.9645 H1   1 S2_EXE    -0.008125
  107 H      7.4057  -4.6927  -2.6968 H1   1 S2_EXE    -0.008945
  108 H      4.6829  -5.5498  -2.8357 H1   1 S2_EXE    -0.007568
  109 H      8.8904  -1.4143  -2.9104 H1   1 S2_EXE    -0.010666
  110 H      8.2209  -3.1130  -3.2236 H1   1 S2_EXE    -0.009806
  111 H      5.9172  -4.6230  -3.6834 H1   1 S2_EXE    -0.008692
  112 H      7.6524  -1.7033  -4.1426 H1   1 S2_EXE    -0.010613
  113 H      6.7699  -3.2003  -4.2627 H1   1 S2_EXE    -0.009703
  114 H      5.0635  -3.4136  -4.6324 H1   1 S2_EXE    -0.009304
  115 H      6.1651  -1.0698  -4.8801 H1   1 S2_EXE    -0.011173
  116 H     -1.3281   0.8113   5.0999 H1   1 S2_EXE    -0.000832
  117 H     -1.0020   2.8213  -4.6841 H1   1 S2_EXE    -0.002738
  118 H     -2.5577   0.2191  -4.9135 H1   1 S2_EXE     0.004212
  119 H     -1.4185  -0.9291   5.0907 H1   1 S2_EXE     0.002081
  120 H     -2.4976  -2.2571   4.7126 H1   1 S2_EXE     0.008679
  121 H     -2.5587  -2.6051  -4.5627 H1   1 S2_EXE     0.009740
  122 H     -0.9897  -1.7704  -4.9494 H1   1 S2_EXE     0.002055
  123 H     -0.2421  -2.7902   5.0999 H1   1 S2_EXE     0.000750
  124 H     -1.4380  -4.0227   4.7988 H1   1 S2_EXE     0.005909
  125 H      0.5169  -4.3295   4.7947 H1   1 S2_EXE     0.000184
  126 H     -0.6668  -5.5129   4.2792 H1   1 S2_EXE     0.004369
  127 H     -3.0435  -3.8576   4.1259 H1   1 S2_EXE     0.012586
  128 H      1.0924  -5.7446   3.9190 H1   1 S2_EXE    -0.000016
  129 H     -2.3607  -5.4427   3.7961 H1   1 S2_EXE     0.009673
  130 H     -0.1240  -6.7725   3.1579 H1   1 S2_EXE     0.003608
  131 H     -3.8312  -4.9100   2.9333 H1   1 S2_EXE     0.016819
  132 H     -1.8791  -6.7488   2.7430 H1   1 S2_EXE     0.008231
  133 H      1.9175  -6.5747   2.6142 H1   1 S2_EXE    -0.001321
  134 H     -3.3819  -6.3023   1.9294 H1   1 S2_EXE     0.013764
  135 H      0.6347  -7.4803   1.7430 H1   1 S2_EXE     0.002226
  136 H     -1.0719  -7.6032   1.4045 H1   1 S2_EXE     0.006195
  137 H      2.1757  -7.1517   0.9614 H1   1 S2_EXE    -0.001444
  138 H     -2.6311  -7.2310   0.6623 H1   1 S2_EXE     0.010632
  139 H     -4.3682  -5.7145   0.6155 H1   1 S2_EXE     0.019917
  140 H      0.2123  -7.8479   0.0934 H1   1 S2_EXE     0.003317
  141 H     -1.4211  -7.7085  -0.4979 H1   1 S2_EXE     0.007099
  142 H     -3.5434  -6.5987  -0.7093 H1   1 S2_EXE     0.014403
  143 H      1.7310  -7.4132  -0.7239 H1   1 S2_EXE    -0.000225
  144 H     -0.0949  -7.6024  -1.6224 H1   1 S2_EXE     0.003897
  145 H     -4.2313  -5.4111  -1.7841 H1   1 S2_EXE     0.019190
  146 H     -2.2710  -7.0532  -1.8915 H1   1 S2_EXE     0.009460
  147 H      1.9274  -6.7493  -2.3307 H1   1 S2_EXE    -0.001194
  148 H     -3.0196  -5.8796  -2.9442 H1   1 S2_EXE     0.012269
  149 H     -0.8923  -6.8420  -3.0024 H1   1 S2_EXE     0.005531
  150 H      0.7205  -6.3212  -3.5292 H1   1 S2_EXE     0.001338
  151 H     -3.5832  -4.3266  -3.5322 H1   1 S2_EXE     0.015550
  152 H     -1.6690  -5.5820  -4.0110 H1   1 S2_EXE     0.007340
  153 H      1.5438  -4.9155  -4.2648 H1   1 S2_EXE    -0.002032
  154 H     -0.1740  -4.8974  -4.6344 H1   1 S2_EXE     0.002619
  155 H     -2.8268   1.7123   5.0945 H1   1 S2_EXE     0.002798
  156 H     -1.5108   2.8426   4.8191 H1   1 S2_EXE    -0.001293
  157 H     -3.2449   3.3701   4.7417 H1   1 S2_EXE     0.002564
  158 H     -4.4426   1.1338   4.7415 H1   1 S2_EXE     0.007844
  159 H     -4.8871   2.7938   4.4107 H1   1 S2_EXE     0.006449
  160 H     -5.3654   4.1924   3.4293 H1   1 S2_EXE     0.006136
  161 H     -6.6490   3.2024   2.6885 H1   1 S2_EXE     0.009968
  162 H     -6.9108   4.0927   1.1847 H1   1 S2_EXE     0.009473
  163 H     -7.1412   3.9010  -0.5426 H1   1 S2_EXE     0.010269
  164 H     -6.4880   4.1210  -2.1702 H1   1 S2_EXE     0.008477
  165 H     -6.3265   2.7985  -3.2947 H1   1 S2_EXE     0.009759
  166 H     -5.2877   4.1894  -3.4926 H1   1 S2_EXE     0.005990
  167 H     -1.6424   4.4237  -4.1314 H1   1 S2_EXE    -0.000718
  168 H     -3.6987   4.2694  -4.2096 H1   1 S2_EXE     0.003051
  169 H     -5.4014   1.6503  -4.2766 H1   1 S2_EXE     0.009346
  170 H     -4.0373   2.6218  -4.7921 H1   1 S2_EXE     0.004785
  171 H     -6.1580   1.6911   3.8572 H1   1 S2_EXE     0.010750
  172 H     -7.5489   1.7072   2.4803 H1   1 S2_EXE     0.013183
  173 H     -7.8730   2.6273   1.0058 H1   1 S2_EXE     0.012620
  174 H     -8.2303   1.8151  -0.5162 H1   1 S2_EXE     0.014277
  175 H     -7.5130   2.7479  -1.8456 H1   1 S2_EXE     0.011867
  176 H     -3.7464  -0.6534   5.0999 H1   1 S2_EXE     0.008413
  177 H     -5.4648  -0.5412   4.8037 H1   1 S2_EXE     0.011102
  178 H     -4.6473  -2.1146   4.7976 H1   1 S2_EXE     0.011991
  179 H     -4.7981  -3.6595   3.9699 H1   1 S2_EXE     0.015037
  180 H     -6.8935   0.0459   3.9617 H1   1 S2_EXE     0.012677
  181 H     -7.8116   1.1636  -2.5143 H1   1 S2_EXE     0.013665
  182 H     -7.1790   0.0128  -3.7237 H1   1 S2_EXE     0.013103
  183 H     -5.2521  -3.7009  -3.7887 H1   1 S2_EXE     0.015540
  184 H     -6.4226  -1.4582  -4.2673 H1   1 S2_EXE     0.013320
  185 H     -4.2974  -2.5338  -4.7013 H1   1 S2_EXE     0.012260
  186 H     -5.4906  -0.0578  -4.7608 H1   1 S2_EXE     0.010693
  187 H     -3.9705  -0.8458  -5.0910 H1   1 S2_EXE     0.009093
  188 H     -1.9454   4.4118   4.2013 H1   1 S2_EXE    -0.000145
  189 H     -3.6171   4.8961   3.9472 H1   1 S2_EXE     0.002628
  190 H     -2.3302   5.9028   3.3272 H1   1 S2_EXE     0.000653
  191 H     -4.6873   5.7459   2.8620 H1   1 S2_EXE     0.003809
  192 H     -3.3712   6.7491   2.1891 H1   1 S2_EXE     0.001905
  193 H     -1.2294   6.5555   2.1404 H1   1 S2_EXE    -0.000537
  194 H     -5.9495   5.5228   1.6841 H1   1 S2_EXE     0.005777
  195 H     -4.7782   6.6984   1.1461 H1   1 S2_EXE     0.003524
  196 H     -2.3011   7.2592   0.8980 H1   1 S2_EXE     0.000794
  197 H     -6.4407   5.4098   0.0161 H1   1 S2_EXE     0.006659
  198 H     -3.7160   7.2469  -0.1850 H1   1 S2_EXE     0.002230
  199 H     -0.9561   7.0162  -0.1902 H1   1 S2_EXE    -0.000636
  200 H     -5.2452   6.5269  -0.6756 H1   1 S2_EXE     0.004157
  201 H     -2.3564   7.1714  -1.2732 H1   1 S2_EXE     0.000837
  202 H     -3.9829   6.7692  -1.8530 H1   1 S2_EXE     0.002589
  203 H     -5.5461   5.6342  -2.1631 H1   1 S2_EXE     0.005087
  204 H     -1.3258   6.3987  -2.4505 H1   1 S2_EXE    -0.000485
  205 H     -2.9464   6.1137  -3.1289 H1   1 S2_EXE     0.001446
  206 H     -6.3184  -1.9779   4.2378 H1   1 S2_EXE     0.013649
  207 H     -6.5299  -3.5581   3.5101 H1   1 S2_EXE     0.014973
  208 H     -7.7957  -1.4492   3.4511 H1   1 S2_EXE     0.013656
  209 H     -5.5824  -4.7851   2.7121 H1   1 S2_EXE     0.016892
  210 H     -7.9933  -3.0490   2.7082 H1   1 S2_EXE     0.014443
  211 H     -7.2044  -4.4864   2.0791 H1   1 S2_EXE     0.015699
  212 H     -8.6766   0.7373   1.4893 H1   1 S2_EXE     0.013944
  213 H     -8.9608  -2.6195   1.2938 H1   1 S2_EXE     0.014287
  214 H     -6.0541  -5.4348   1.1557 H1   1 S2_EXE     0.017464
  215 H     -8.2629  -4.1120   0.6988 H1   1 S2_EXE     0.015151
  216 H     -9.3043  -0.3772   0.2468 H1   1 S2_EXE     0.013963
  217 H     -7.1507  -5.1157  -0.2000 H1   1 S2_EXE     0.016380
  218 H     -9.2897  -2.0604  -0.3482 H1   1 S2_EXE     0.014145
  219 H     -8.5986  -3.5789  -0.9432 H1   1 S2_EXE     0.014764
  220 H     -8.9018   0.3820  -1.2966 H1   1 S2_EXE     0.013933
  221 H     -6.0084  -5.3395  -1.4975 H1   1 S2_EXE     0.017364
  222 H     -8.9679  -1.3385  -1.9010 H1   1 S2_EXE     0.013910
  223 H     -7.4145  -4.4077  -1.9464 H1   1 S2_EXE     0.015563
  224 H     -8.2183  -2.9177  -2.5149 H1   1 S2_EXE     0.014372
