@<TRIPOS>MOLECULE
water_ie_tm.mol2
     38 0 0 0
SMALL
GASTEIGER
@<TRIPOS>ATOM
   1    H    0.1434   -0.3688    1.5854  H1  1  IE  198.102363
   2    H   -0.6038    0.2979    1.4805  H1  1  IE  201.749691
   3    H    0.8192    0.2385    1.3757  H1  1  IE  205.210748
   4    H   -0.5142   -0.8464    1.2709  H1  1  IE  201.761329
   5    H   -0.2141    1.0797    1.1661  H1  1  IE  199.918683
   6    H    0.9606   -0.7054    1.0612  H1  1  IE  210.326146
   7    H   -1.2603   -0.1369    0.9564  H1  1  IE  217.891817
   8    H    0.8787    0.9999    0.8516  H1  1  IE  211.196428
   9    H    0.0286   -1.3835    0.7468  H1  1  IE  203.163153
  10    H   -0.9853    1.0319    0.6419  H1  1  IE  216.585958
  11    H    1.4578   -0.0976    0.5371  H1  1  IE  229.892196
  12    H   -1.1612   -0.9290    0.4323  H1  1  IE  224.835209
  13    H    0.8401   -1.2624    0.2226  H1  1  IE  221.854645
  14    H   -1.4757    0.3642    0.1178  H1  1  IE  240.462279
  15    H    1.3310    0.7266    0.0130  H1  1  IE  239.274077
  16    H    1.3358   -0.5918   -0.3015  H1  1  IE  246.066349
  17    H   -1.3523   -0.4550   -0.4063  H1  1  IE  247.861769
  18    H    1.1785    0.1775   -0.8257  H1  1  IE  243.310877
  19    H   -0.6730    0.0172   -1.2450  H1  1  IE  233.340147
  20    H   -0.2021    1.7748    0.1288  H1  1  IE  189.127885
  21    H    0.7811    1.6442   -0.2712  H1  1  IE  191.845853
  22    H   -0.8274    1.6220   -0.5378  H1  1  IE  188.838022
  23    H    1.1806    0.6764   -0.6712  H1  1  IE  236.991746
  24    H    0.1700    1.8478   -0.9378  H1  1  IE  175.098558
  25    H   -0.9222    0.9830   -1.2045  H1  1  IE  199.178333
  26    H    0.7285    1.1531   -1.3378  H1  1  IE  189.419122
  27    H   -0.2146    0.1278   -1.4712  H1  1  IE  220.546545
  28    H   -0.1580    1.1168   -1.6045  H1  1  IE  183.888384
  29    H   -0.4931   -1.5673    0.2622  H1  1  IE  201.189944
  30    H    0.8911   -1.4098   -0.0045  H1  1  IE  208.597531
  31    H    0.0248   -1.9533   -0.4045  H1  1  IE  177.882572
  32    H    1.1806   -0.8345   -0.6712  H1  1  IE  226.569564
  33    H   -0.9002   -1.4756   -0.8045  H1  1  IE  189.996059
  34    H    0.5758   -1.6206   -1.0712  H1  1  IE  179.807888
  35    H   -0.9222   -0.5279   -1.2045  H1  1  IE  217.302820
  36    H    0.7285   -0.3578   -1.3378  H1  1  IE  217.918181
  37    H   -0.2146   -1.3831   -1.4712  H1  1  IE  179.412625
  38    H   -0.1580   -0.3941   -1.6045  H1  1  IE  204.830837
