@<TRIPOS>MOLECULE
water_gse_tm.mol2
     38 0 0 0
SMALL
GASTEIGER
@<TRIPOS>ATOM
   1    H    0.1434   -0.3688    1.5854  H1  1  GSE  -80.111369
   2    H   -0.6038    0.2979    1.4805  H1  1  GSE  -81.063797
   3    H    0.8192    0.2385    1.3757  H1  1  GSE  -81.682032
   4    H   -0.5142   -0.8464    1.2709  H1  1  GSE  -71.068265
   5    H   -0.2141    1.0797    1.1661  H1  1  GSE  -62.669673
   6    H    0.9606   -0.7054    1.0612  H1  1  GSE  -74.004155
   7    H   -1.2603   -0.1369    0.9564  H1  1  GSE  -81.339537
   8    H    0.8787    0.9999    0.8516  H1  1  GSE  -63.139241
   9    H    0.0286   -1.3835    0.7468  H1  1  GSE  -41.916288
  10    H   -0.9853    1.0319    0.6419  H1  1  GSE  -58.982840
  11    H    1.4578   -0.0976    0.5371  H1  1  GSE  -77.597702
  12    H   -1.1612   -0.9290    0.4323  H1  1  GSE  -59.617919
  13    H    0.8401   -1.2624    0.2226  H1  1  GSE  -36.038936
  14    H   -1.4757    0.3642    0.1178  H1  1  GSE  -67.991821
  15    H    1.3310    0.7266    0.0130  H1  1  GSE  -57.127864
  16    H    1.3358   -0.5918   -0.3015  H1  1  GSE  -51.049013
  17    H   -1.3523   -0.4550   -0.4063  H1  1  GSE  -50.482946
  18    H    1.1785    0.1775   -0.8257  H1  1  GSE  -35.399790
  19    H   -0.6730    0.0172   -1.2450  H1  1  GSE   -8.993157
  20    H   -0.2021    1.7748    0.1288  H1  1  GSE   -5.839365
  21    H    0.7811    1.6442   -0.2712  H1  1  GSE   -3.744774
  22    H   -0.8274    1.6220   -0.5378  H1  1  GSE    0.854378
  23    H    1.1806    0.6764   -0.6712  H1  1  GSE  -30.880103
  24    H    0.1700    1.8478   -0.9378  H1  1  GSE   14.041865
  25    H   -0.9222    0.9830   -1.2045  H1  1  GSE   -0.317951
  26    H    0.7285    1.1531   -1.3378  H1  1  GSE    7.078988
  27    H   -0.2146    0.1278   -1.4712  H1  1  GSE    4.174944
  28    H   -0.1580    1.1168   -1.6045  H1  1  GSE   13.345430
  29    H   -0.4931   -1.5673    0.2622  H1  1  GSE  -18.192296
  30    H    0.8911   -1.4098   -0.0045  H1  1  GSE  -20.250284
  31    H    0.0248   -1.9533   -0.4045  H1  1  GSE    8.130653
  32    H    1.1806   -0.8345   -0.6712  H1  1  GSE  -24.485828
  33    H   -0.9002   -1.4756   -0.8045  H1  1  GSE    2.043829
  34    H    0.5758   -1.6206   -1.0712  H1  1  GSE   11.528678
  35    H   -0.9222   -0.5279   -1.2045  H1  1  GSE   -8.504289
  36    H    0.7285   -0.3578   -1.3378  H1  1  GSE   -3.773298
  37    H   -0.2146   -1.3831   -1.4712  H1  1  GSE   14.783767
  38    H   -0.1580   -0.3941   -1.6045  H1  1  GSE    7.918524
