@<TRIPOS>MOLECULE
homo_normalized | baseline=-13.547519
   30 0 0 0
SMALL
GASTEIGER
@<TRIPOS>ATOM
    1 H      0.9697   1.4517  -0.3462 H1   1 HOMO      -0.005242
    2 H      0.0046  -0.0118   1.6371 H1   1 HOMO      -0.287451
    3 H     -0.3940   0.8474   1.3160 H1   1 HOMO      -0.754155
    4 H      0.6404   0.6888   1.3113 H1   1 HOMO      -0.643352
    5 H     -0.9324  -0.1532   1.3078 H1   1 HOMO      -0.191635
    6 H      0.8733  -0.3832   1.3008 H1   1 HOMO      -0.107392
    7 H     -0.1044  -0.9493   1.2996 H1   1 HOMO       0.183495
    8 H     -1.2117   0.6441   0.7708 H1   1 HOMO      -0.425229
    9 H     -0.9490  -0.9966   0.7626 H1   1 HOMO       0.068899
   10 H      0.6866  -1.2049   0.7394 H1   1 HOMO       0.178426
   11 H      1.3667   0.2692   0.7254 H1   1 HOMO      -0.354119
   12 H      0.2079   1.3898   0.6964 H1   1 HOMO      -0.857970
   13 H     -1.4849  -0.2233   0.3533 H1   1 HOMO      -0.380244
   14 H      1.3769  -0.6314   0.2429 H1   1 HOMO      -0.327118
   15 H     -1.1784   0.9059  -0.2010 H1   1 HOMO      -0.504178
   16 H      1.3788   0.5163  -0.2606 H1   1 HOMO      -0.485922
   17 H     -1.2028  -0.6891  -0.5064 H1   1 HOMO      -0.359331
   18 H      1.1977  -0.4092  -0.7245 H1   1 HOMO      -0.502037
   19 H     -1.0712   0.2294  -0.9365 H1   1 HOMO      -0.765454
   20 H      0.5385   0.0787  -1.3020 H1   1 HOMO      -1.000000
   21 H     -0.5544   1.6573   0.0963 H1   1 HOMO      -0.135618
   22 H      0.1049   1.9419  -0.6149 H1   1 HOMO       0.398700
   23 H     -0.7853   1.5624  -0.8836 H1   1 HOMO       0.275692
   24 H      0.8639   1.0262  -1.2563 H1   1 HOMO      -0.008166
   25 H     -0.0599   1.3066  -1.5330 H1   1 HOMO       0.282485
   26 H     -0.1872  -1.5608   0.4010 H1   1 HOMO       0.460462
   27 H      0.6590  -1.7058  -0.1487 H1   1 HOMO       0.759105
   28 H     -0.5515  -1.5734  -1.1519 H1   1 HOMO       1.000000
   29 H      0.7665  -1.3762  -1.1522 H1   1 HOMO       0.837565
   30 H     -0.7420  -0.6106  -1.4006 H1   1 HOMO       0.188674
