@<TRIPOS>MOLECULE
gap | baseline=7.771512
   32 0 0 0
SMALL
GASTEIGER
@<TRIPOS>ATOM
    1 H      0.5516  -1.3643  -0.3793 H1   1 GAP        0.144168
    2 H      0.0046  -0.1275   2.3337 H1   1 GAP       -0.188751
    3 H     -0.0766   0.7824   1.9259 H1   1 GAP       -0.135621
    4 H     -0.8737   0.1261   1.9200 H1   1 GAP       -0.119628
    5 H      0.8925   0.0690   1.9143 H1   1 GAP       -0.118518
    6 H     -0.4725  -0.8998   1.9097 H1   1 GAP       -0.139325
    7 H      0.5400  -0.8685   1.8965 H1   1 GAP       -0.135858
    8 H      0.7020   0.8480   1.2692 H1   1 GAP       -0.001507
    9 H     -1.1218  -0.5348   1.2103 H1   1 GAP        0.028606
   10 H     -0.7480   0.8216   1.1779 H1   1 GAP        0.025577
   11 H      1.1230  -0.5384   1.1486 H1   1 GAP        0.045967
   12 H      0.0319  -1.3153   1.1427 H1   1 GAP       -0.027837
   13 H     -0.0144   1.5204   1.0141 H1   1 GAP       -0.041523
   14 H      0.8836   1.5441   0.5727 H1   1 GAP        0.002866
   15 H     -0.8876   1.6050   0.5246 H1   1 GAP       -0.004602
   16 H      0.1695   2.2166   0.3186 H1   1 GAP       -0.083286
   17 H     -1.1874   0.9447  -0.1660 H1   1 GAP        0.182275
   18 H      1.1865   0.9440  -0.1812 H1   1 GAP        0.182078
   19 H     -0.6220   2.1162  -0.3147 H1   1 GAP       -0.063481
   20 H      0.8449   1.9250  -0.3617 H1   1 GAP       -0.037953
   21 H     -0.7699   1.3643  -0.9980 H1   1 GAP        0.026719
   22 H      0.1051   1.8734  -1.0332 H1   1 GAP       -0.049363
   23 H      0.7113   0.9256  -1.0621 H1   1 GAP        0.099340
   24 H      1.3212   0.3305   0.6575 H1   1 GAP        0.190817
   25 H     -1.3641   0.2505   0.6039 H1   1 GAP        0.202813
   26 H     -0.7659  -1.1973   0.5052 H1   1 GAP        0.117388
   27 H     -0.7170  -1.0958  -0.7837 H1   1 GAP        0.163588
   28 H     -1.3103  -0.0955  -0.7840 H1   1 GAP        0.230044
   29 H      1.3077  -0.1227  -0.7844 H1   1 GAP        0.229971
   30 H      0.6309  -0.7462  -1.1809 H1   1 GAP        0.154249
   31 H     -0.6308   0.4316  -1.3362 H1   1 GAP        0.122611
   32 H      1.2310  -0.8580   0.2008 H1   1 GAP        0.201119
