@<TRIPOS>MOLECULE
lumo | baseline=2.506316
  476 0 0 0
SMALL
GASTEIGER
@<TRIPOS>ATOM
    1 H      8.9464  20.7613  28.2536 H1   1 LUMO      -0.260300
    2 H      8.1905  18.1405  16.4982 H1   1 LUMO      -0.270198
    3 H      7.5430  18.9755  16.4024 H1   1 LUMO      -0.263675
    4 H      9.5932  17.9951  16.2990 H1   1 LUMO      -0.272025
    5 H      7.5699  19.9603  16.1590 H1   1 LUMO      -0.269176
    6 H      8.2169  20.6984  15.8418 H1   1 LUMO      -0.272200
    7 H      8.9015  17.5455  15.7284 H1   1 LUMO      -0.250800
    8 H     10.1766  20.2268  15.6861 H1   1 LUMO      -0.265053
    9 H      7.1690  19.2621  15.5065 H1   1 LUMO      -0.238982
   10 H      9.1150  20.8838  15.3366 H1   1 LUMO      -0.256264
   11 H      8.9307  17.6280  14.7171 H1   1 LUMO      -0.234286
   12 H      7.3752  18.8954  14.5864 H1   1 LUMO      -0.229566
   13 H      9.6649  20.4798  14.5696 H1   1 LUMO      -0.245839
   14 H      8.2845  18.1851  14.1195 H1   1 LUMO      -0.229565
   15 H      7.9420  19.4363  13.9420 H1   1 LUMO      -0.231310
   16 H      9.1141  19.9939  13.8696 H1   1 LUMO      -0.238597
   17 H      9.6626  19.1762  26.8972 H1   1 LUMO      -0.302727
   18 H     10.4916  19.7049  26.6615 H1   1 LUMO      -0.307313
   19 H      8.6915  19.0295  26.6241 H1   1 LUMO      -0.308796
   20 H     10.6455  18.8038  26.2114 H1   1 LUMO      -0.295352
   21 H     10.8216  20.4300  26.0308 H1   1 LUMO      -0.324267
   22 H      7.9962  19.3500  25.9797 H1   1 LUMO      -0.324055
   23 H      8.4774  18.4310  25.8400 H1   1 LUMO      -0.304194
   24 H     11.1450  19.5245  25.7271 H1   1 LUMO      -0.305657
   25 H     10.7410  18.4805  25.2553 H1   1 LUMO      -0.313412
   26 H     10.5188  21.0247  25.2539 H1   1 LUMO      -0.340948
   27 H      7.8516  20.0148  25.2128 H1   1 LUMO      -0.342831
   28 H      7.9971  18.9099  25.0731 H1   1 LUMO      -0.325544
   29 H     11.0882  20.2300  24.9989 H1   1 LUMO      -0.329117
   30 H      8.7977  18.1502  24.9334 H1   1 LUMO      -0.321617
   31 H     11.0678  19.2663  24.7087 H1   1 LUMO      -0.331596
   32 H     12.4951  21.3390  11.0972 H1   1 LUMO      -0.261950
   33 H     12.9600  22.2389  11.0030 H1   1 LUMO      -0.256364
   34 H     11.7900  20.7725  10.6607 H1   1 LUMO      -0.263342
   35 H     12.2935  22.9394  10.6606 H1   1 LUMO      -0.268524
   36 H     13.7146  21.7168  10.5997 H1   1 LUMO      -0.232673
   37 H     13.2820  22.9414  10.3549 H1   1 LUMO      -0.240207
   38 H     12.1058  20.1660   9.9273 H1   1 LUMO      -0.239376
   39 H     13.9843  22.3738   9.8933 H1   1 LUMO      -0.228325
   40 H     12.5757  23.4130   9.8218 H1   1 LUMO      -0.249906
   41 H     14.0793  21.3231   9.7475 H1   1 LUMO      -0.221984
   42 H     11.3494  20.4808   9.3131 H1   1 LUMO      -0.257316
   43 H     12.8116  20.1131   9.1991 H1   1 LUMO      -0.222538
   44 H     13.6852  20.6259   9.1114 H1   1 LUMO      -0.221340
   45 H     11.9208  23.3174   9.0448 H1   1 LUMO      -0.257019
   46 H     12.0480  20.3547   8.5849 H1   1 LUMO      -0.233710
   47 H     11.2543  21.0513   8.4858 H1   1 LUMO      -0.254260
   48 H     12.1236  22.1712  19.0170 H1   1 LUMO      -0.231186
   49 H     13.0781  22.2506  18.7190 H1   1 LUMO      -0.218017
   50 H     12.5460  21.3147  18.7147 H1   1 LUMO      -0.233584
   51 H     10.6108  22.3421  18.0852 H1   1 LUMO      -0.247240
   52 H     12.2414  20.6455  18.0319 H1   1 LUMO      -0.241183
   53 H     13.6564  22.5349  17.9515 H1   1 LUMO      -0.209981
   54 H     11.5449  20.5832  17.2867 H1   1 LUMO      -0.253638
   55 H     10.5974  22.9394  17.2663 H1   1 LUMO      -0.236518
   56 H     12.7419  20.6098  17.1522 H1   1 LUMO      -0.228601
   57 H     10.7035  21.2581  17.1408 H1   1 LUMO      -0.273130
   58 H     13.5911  22.9930  17.0584 H1   1 LUMO      -0.209443
   59 H     12.9147  23.3670  16.3924 H1   1 LUMO      -0.216943
   60 H     13.4765  22.3338  16.3049 H1   1 LUMO      -0.217034
   61 H     12.8998  21.0974  16.2673 H1   1 LUMO      -0.225811
   62 H      9.2851  20.7193  20.2283 H1   1 LUMO      -0.335922
   63 H      8.3559  20.9683  19.9550 H1   1 LUMO      -0.315234
   64 H     10.2057  20.8960  19.8710 H1   1 LUMO      -0.316539
   65 H      7.9434  20.2307  19.3669 H1   1 LUMO      -0.312050
   66 H      8.1015  21.6798  19.2722 H1   1 LUMO      -0.286534
   67 H     10.5094  21.5209  19.1202 H1   1 LUMO      -0.278944
   68 H     10.7401  20.5641  18.8828 H1   1 LUMO      -0.301139
   69 H      7.6802  20.9675  18.7023 H1   1 LUMO      -0.293129
   70 H      8.5860  22.1918  18.5506 H1   1 LUMO      -0.274814
   71 H      7.9242  19.9840  18.3851 H1   1 LUMO      -0.312600
   72 H      9.6150  22.2470  18.3611 H1   1 LUMO      -0.268418
   73 H     10.4406  18.6207  16.3179 H1   1 LUMO      -0.271079
   74 H     10.8404  19.5090  16.0520 H1   1 LUMO      -0.260885
   75 H     11.3873  18.7099  15.7931 H1   1 LUMO      -0.241844
   76 H     11.7751  19.1242  14.9571 H1   1 LUMO      -0.230370
   77 H      9.8260  17.1801  14.8673 H1   1 LUMO      -0.228360
   78 H     11.6788  18.1524  14.7021 H1   1 LUMO      -0.224056
   79 H     10.6658  17.2739  14.2854 H1   1 LUMO      -0.220823
   80 H     11.6846  18.8907  13.9874 H1   1 LUMO      -0.224448
   81 H     10.2704  20.2842  13.7754 H1   1 LUMO      -0.239147
   82 H     11.1342  19.6476  13.5570 H1   1 LUMO      -0.231866
   83 H      8.9647  21.5398  27.5924 H1   1 LUMO      -0.283792
   84 H      8.1734  20.8997  27.5426 H1   1 LUMO      -0.290627
   85 H      9.9586  21.3400  27.4759 H1   1 LUMO      -0.295202
   86 H      8.1829  19.8943  27.3716 H1   1 LUMO      -0.299520
   87 H     10.5718  20.6496  27.0830 H1   1 LUMO      -0.303825
   88 H      8.1672  21.7552  26.9887 H1   1 LUMO      -0.289277
   89 H      9.5347  22.0836  26.9480 H1   1 LUMO      -0.294064
   90 H      7.5780  20.4859  26.8311 H1   1 LUMO      -0.308992
   91 H     10.4767  21.5576  26.6474 H1   1 LUMO      -0.312777
   92 H      7.5960  21.3351  26.2605 H1   1 LUMO      -0.310295
   93 H      9.9181  22.1277  26.0168 H1   1 LUMO      -0.315745
   94 H      7.7155  21.0082  25.3217 H1   1 LUMO      -0.330477
   95 H      9.6787  21.8209  25.0895 H1   1 LUMO      -0.336587
   96 H     13.6284  23.2084   9.4549 H1   1 LUMO      -0.238014
   97 H     14.4250  22.7147   9.0537 H1   1 LUMO      -0.221003
   98 H     12.9397  23.7156   8.9135 H1   1 LUMO      -0.238697
   99 H     13.9960  23.5069   8.5694 H1   1 LUMO      -0.224814
  100 H     11.4573  22.7967   8.3010 H1   1 LUMO      -0.253345
  101 H     13.1350  20.4455   8.2869 H1   1 LUMO      -0.225865
  102 H     13.2173  23.7999   7.9522 H1   1 LUMO      -0.222218
  103 H     14.4409  22.9690   7.8242 H1   1 LUMO      -0.208668
  104 H     11.9457  20.9311   7.7695 H1   1 LUMO      -0.241676
  105 H     13.8328  20.7966   7.6210 H1   1 LUMO      -0.214625
  106 H     11.6219  21.8201   7.3733 H1   1 LUMO      -0.240240
  107 H     12.8401  20.7161   7.3692 H1   1 LUMO      -0.226629
  108 H     13.6874  23.2989   7.2205 H1   1 LUMO      -0.205392
  109 H     14.1055  22.4014   6.9886 H1   1 LUMO      -0.200550
  110 H     13.7302  21.4803   6.8773 H1   1 LUMO      -0.208016
  111 H     12.4255  21.4646   6.8371 H1   1 LUMO      -0.225794
  112 H     13.1622  22.5430   6.6296 H1   1 LUMO      -0.206162
  113 H     12.2561  23.5519  19.6428 H1   1 LUMO      -0.216369
  114 H     12.4240  24.4963  19.3377 H1   1 LUMO      -0.204662
  115 H     13.1930  24.7209  18.7016 H1   1 LUMO      -0.194718
  116 H     12.2231  25.1220  18.5754 H1   1 LUMO      -0.200062
  117 H     13.7838  24.2240  18.0437 H1   1 LUMO      -0.193895
  118 H     11.7940  25.1644  17.6687 H1   1 LUMO      -0.204227
  119 H     13.6164  24.0119  17.0792 H1   1 LUMO      -0.199227
  120 H     11.2525  24.6012  17.0381 H1   1 LUMO      -0.212287
  121 H     11.0565  23.6725  16.7187 H1   1 LUMO      -0.225313
  122 H      8.0919  19.8790  22.5158 H1   1 LUMO      -0.354032
  123 H     10.3677  20.7177  22.4693 H1   1 LUMO      -0.354208
  124 H      7.5632  20.7234  22.2966 H1   1 LUMO      -0.321503
  125 H     10.2184  21.6927  22.2444 H1   1 LUMO      -0.321009
  126 H      7.7502  21.7022  22.1071 H1   1 LUMO      -0.310299
  127 H      9.4397  22.3197  22.0672 H1   1 LUMO      -0.309513
  128 H      7.7285  20.0034  21.5810 H1   1 LUMO      -0.324630
  129 H     10.5268  21.0586  21.5228 H1   1 LUMO      -0.322641
  130 H      7.5241  21.0912  21.3471 H1   1 LUMO      -0.302369
  131 H     10.0043  21.9639  21.2978 H1   1 LUMO      -0.299400
  132 H      7.9480  20.4303  20.6998 H1   1 LUMO      -0.320203
  133 H      8.5460  22.4445  25.1745 H1   1 LUMO      -0.310408
  134 H      7.7317  21.9338  24.8930 H1   1 LUMO      -0.310920
  135 H      9.4250  22.7801  24.8109 H1   1 LUMO      -0.299476
  136 H      7.7818  22.9420  24.7477 H1   1 LUMO      -0.278713
  137 H      8.6574  23.4156  24.6196 H1   1 LUMO      -0.273694
  138 H     10.0024  22.2065  24.2157 H1   1 LUMO      -0.318702
  139 H      7.1616  22.3703  24.1874 H1   1 LUMO      -0.285201
  140 H      7.4596  21.3257  24.1460 H1   1 LUMO      -0.319021
  141 H      9.4874  23.4009  24.0244 H1   1 LUMO      -0.279795
  142 H      7.8947  23.5544  23.9595 H1   1 LUMO      -0.265046
  143 H      8.7350  23.7264  23.4433 H1   1 LUMO      -0.268820
  144 H      7.2997  22.9899  23.3784 H1   1 LUMO      -0.273850
  145 H      9.9717  22.7744  23.3712 H1   1 LUMO      -0.299354
  146 H      7.1580  21.8312  23.3277 H1   1 LUMO      -0.299181
  147 H      8.0566  23.3472  22.7832 H1   1 LUMO      -0.274230
  148 H      9.3023  23.2192  22.7656 H1   1 LUMO      -0.286161
  149 H      8.5047  22.6578  22.2133 H1   1 LUMO      -0.299835
  150 H      9.3337  17.0279  13.9834 H1   1 LUMO      -0.213901
  151 H      8.5517  17.4622  13.4782 H1   1 LUMO      -0.210940
  152 H      9.6904  16.7597  13.0768 H1   1 LUMO      -0.202952
  153 H      9.6436  20.0941  12.9867 H1   1 LUMO      -0.232035
  154 H     11.3849  19.1432  12.7303 H1   1 LUMO      -0.221713
  155 H     10.6124  19.9016  12.7183 H1   1 LUMO      -0.233041
  156 H      8.9419  17.2105  12.5851 H1   1 LUMO      -0.201302
  157 H     10.7223  19.2422  11.9700 H1   1 LUMO      -0.221180
  158 H      9.5565  17.5154  11.8549 H1   1 LUMO      -0.202376
  159 H     10.0058  18.6710  11.5543 H1   1 LUMO      -0.212453
  160 H     11.2759  24.3388  20.2434 H1   1 LUMO      -0.214647
  161 H     10.3716  24.7273  20.0211 H1   1 LUMO      -0.213645
  162 H     11.2378  25.2057  19.7269 H1   1 LUMO      -0.202995
  163 H      9.5559  24.4655  19.4579 H1   1 LUMO      -0.218857
  164 H      9.2584  23.7800  18.7785 H1   1 LUMO      -0.229695
  165 H      9.8097  23.8918  17.3571 H1   1 LUMO      -0.229845
  166 H      8.5661  21.9824  14.9325 H1   1 LUMO      -0.243011
  167 H      8.7689  23.0253  14.9104 H1   1 LUMO      -0.235854
  168 H      9.6091  23.6469  14.8405 H1   1 LUMO      -0.231308
  169 H     10.6551  20.9509  14.7748 H1   1 LUMO      -0.246127
  170 H     10.6275  23.5508  14.7614 H1   1 LUMO      -0.235873
  171 H      8.8398  21.1674  14.4161 H1   1 LUMO      -0.243142
  172 H      9.0275  23.4598  14.0270 H1   1 LUMO      -0.227452
  173 H     10.0518  23.7507  13.9480 H1   1 LUMO      -0.229668
  174 H      9.4440  20.9173  13.6561 H1   1 LUMO      -0.241700
  175 H      9.5834  23.2835  13.1972 H1   1 LUMO      -0.236769
  176 H      9.7734  21.5169  12.9249 H1   1 LUMO      -0.249517
  177 H      7.9899  22.6753  17.9038 H1   1 LUMO      -0.251707
  178 H      7.6187  21.7936  17.5896 H1   1 LUMO      -0.275181
  179 H      7.8781  23.3600  17.1772 H1   1 LUMO      -0.235484
  180 H      7.4885  21.2932  16.7182 H1   1 LUMO      -0.276431
  181 H      8.5685  23.8291  16.5848 H1   1 LUMO      -0.231499
  182 H      9.5527  23.7427  16.3870 H1   1 LUMO      -0.234618
  183 H      7.7386  21.5411  15.5606 H1   1 LUMO      -0.248566
  184 H      9.2607  17.8651  21.6526 H1   1 LUMO      -0.360419
  185 H     10.7521  18.4005  21.6088 H1   1 LUMO      -0.358323
  186 H      8.4018  18.2583  21.2815 H1   1 LUMO      -0.359295
  187 H     11.1391  19.2556  21.2053 H1   1 LUMO      -0.353745
  188 H      8.8780  17.4825  20.8106 H1   1 LUMO      -0.350459
  189 H      8.0474  19.0747  20.7981 H1   1 LUMO      -0.348417
  190 H     10.8561  20.1048  20.7210 H1   1 LUMO      -0.345705
  191 H     11.2818  18.3979  20.6783 H1   1 LUMO      -0.344553
  192 H      8.1727  18.1497  20.3138 H1   1 LUMO      -0.352113
  193 H     11.3326  19.3144  20.2158 H1   1 LUMO      -0.342865
  194 H      9.3354  17.3157  19.9309 H1   1 LUMO      -0.340226
  195 H     11.1091  18.2801  19.7004 H1   1 LUMO      -0.332624
  196 H      8.6636  17.9158  19.4694 H1   1 LUMO      -0.342002
  197 H     10.2122  17.7551  19.2586 H1   1 LUMO      -0.326330
  198 H     12.5959  21.3398  13.3501 H1   1 LUMO      -0.243397
  199 H     12.6710  22.8829  13.2889 H1   1 LUMO      -0.241897
  200 H     11.8161  20.7032  13.1722 H1   1 LUMO      -0.250455
  201 H     11.9401  23.5667  13.0838 H1   1 LUMO      -0.245325
  202 H     10.9748  23.6374  12.8247 H1   1 LUMO      -0.246376
  203 H     10.4108  20.8624  12.5032 H1   1 LUMO      -0.254310
  204 H     12.5579  20.7869  12.4927 H1   1 LUMO      -0.246809
  205 H     12.6697  23.3788  12.4041 H1   1 LUMO      -0.243698
  206 H     11.3573  20.4328  12.3013 H1   1 LUMO      -0.254396
  207 H     11.7463  23.8031  12.1315 H1   1 LUMO      -0.247963
  208 H     10.4827  16.7861  19.1373 H1   1 LUMO      -0.281274
  209 H      8.2219  17.1739  18.9433 H1   1 LUMO      -0.283682
  210 H     10.1675  15.9281  18.7226 H1   1 LUMO      -0.254551
  211 H     10.9586  17.5138  18.6229 H1   1 LUMO      -0.284381
  212 H      8.3163  16.2273  18.5617 H1   1 LUMO      -0.253466
  213 H      9.1776  15.6575  18.4573 H1   1 LUMO      -0.246591
  214 H      7.9298  17.7543  18.1815 H1   1 LUMO      -0.287186
  215 H      9.9853  15.5723  17.8049 H1   1 LUMO      -0.240434
  216 H     10.9457  18.0850  17.7701 H1   1 LUMO      -0.287188
  217 H      8.8379  15.6636  17.5043 H1   1 LUMO      -0.239541
  218 H     10.1792  15.9477  16.8931 H1   1 LUMO      -0.240929
  219 H     10.3413  17.3257  16.3480 H1   1 LUMO      -0.257301
  220 H      9.5124  16.4483  16.2923 H1   1 LUMO      -0.244864
  221 H      9.9126  17.7082  24.7165 H1   1 LUMO      -0.312084
  222 H     10.1584  16.7547  24.4950 H1   1 LUMO      -0.280445
  223 H      9.2030  17.1295  24.2996 H1   1 LUMO      -0.295581
  224 H     10.9669  16.4109  23.9587 H1   1 LUMO      -0.270795
  225 H      8.8223  18.0010  23.9285 H1   1 LUMO      -0.333238
  226 H     11.2511  18.7032  23.9022 H1   1 LUMO      -0.322668
  227 H     10.0387  16.1043  23.7423 H1   1 LUMO      -0.273287
  228 H     11.7074  16.9459  23.5232 H1   1 LUMO      -0.272940
  229 H     11.8424  17.9701  23.4842 H1   1 LUMO      -0.287516
  230 H     10.8048  16.0434  23.0410 H1   1 LUMO      -0.269576
  231 H      8.5357  17.7461  23.0032 H1   1 LUMO      -0.334703
  232 H     11.5100  18.7596  22.9377 H1   1 LUMO      -0.326103
  233 H      9.9195  16.0491  22.5493 H1   1 LUMO      -0.280657
  234 H      9.3546  16.6704  21.9652 H1   1 LUMO      -0.302424
  235 H      8.8639  21.1496   8.4349 H1   1 LUMO      -0.243156
  236 H      9.7980  20.6464   8.4063 H1   1 LUMO      -0.238488
  237 H      8.9384  23.2503   8.2888 H1   1 LUMO      -0.243027
  238 H      9.8881  23.6715   8.2083 H1   1 LUMO      -0.238578
  239 H      9.1596  20.6058   7.6310 H1   1 LUMO      -0.205844
  240 H      9.2549  23.6496   7.4179 H1   1 LUMO      -0.203887
  241 H      8.7904  21.0949   6.8339 H1   1 LUMO      -0.191546
  242 H      9.0523  23.1534   6.5600 H1   1 LUMO      -0.188965
  243 H     11.1858  21.5677   6.5072 H1   1 LUMO      -0.205079
  244 H      9.6509  21.0274   6.2706 H1   1 LUMO      -0.188287
  245 H      9.0689  21.8334   6.1240 H1   1 LUMO      -0.184900
  246 H      9.9214  22.9370   6.0663 H1   1 LUMO      -0.187321
  247 H     10.6771  22.2787   6.0197 H1   1 LUMO      -0.192151
  248 H     14.4244  22.5232  16.0271 H1   1 LUMO      -0.200231
  249 H     13.7632  23.2618  15.8260 H1   1 LUMO      -0.206259
  250 H     13.2468  20.6818  15.4258 H1   1 LUMO      -0.219146
  251 H     15.1157  22.1303  15.4046 H1   1 LUMO      -0.191672
  252 H     13.0326  23.5740  15.2088 H1   1 LUMO      -0.217218
  253 H     15.0848  21.2777  14.8557 H1   1 LUMO      -0.192406
  254 H     14.0427  20.4812  14.8439 H1   1 LUMO      -0.204225
  255 H     15.1809  22.7971  14.6276 H1   1 LUMO      -0.189520
  256 H     12.8339  20.6068  14.5165 H1   1 LUMO      -0.226181
  257 H     12.9436  23.6202  14.2110 H1   1 LUMO      -0.219047
  258 H     15.2512  21.9325  14.1141 H1   1 LUMO      -0.189543
  259 H     14.6105  20.8224  14.0670 H1   1 LUMO      -0.197247
  260 H     14.8227  22.9354  13.7023 H1   1 LUMO      -0.193795
  261 H     13.6831  23.4140  13.4960 H1   1 LUMO      -0.208846
  262 H     14.1330  22.6114  13.0408 H1   1 LUMO      -0.207460
  263 H     10.5060  20.2663  17.9350 H1   1 LUMO      -0.307114
  264 H      7.4128  20.6172  17.7866 H1   1 LUMO      -0.295723
  265 H      8.0986  18.8804  22.2882 H1   1 LUMO      -0.357548
  266 H     11.0088  19.9587  22.2525 H1   1 LUMO      -0.357107
  267 H      7.7561  22.4748  11.1518 H1   1 LUMO      -0.234495
  268 H      8.1097  23.4315  11.0321 H1   1 LUMO      -0.232037
  269 H      8.0574  21.5230  11.0025 H1   1 LUMO      -0.236644
  270 H      8.9725  23.8878  10.7264 H1   1 LUMO      -0.235959
  271 H      8.8782  21.0294  10.6832 H1   1 LUMO      -0.248190
  272 H      9.9015  23.6198  10.3740 H1   1 LUMO      -0.256264
  273 H      8.1334  23.9972  10.1934 H1   1 LUMO      -0.227983
  274 H      7.9872  21.0151  10.1427 H1   1 LUMO      -0.233597
  275 H      9.2588  24.1089   9.7786 H1   1 LUMO      -0.240603
  276 H      9.2928  20.8556   9.7631 H1   1 LUMO      -0.265722
  277 H      8.4109  24.0366   9.2320 H1   1 LUMO      -0.229860
  278 H      7.8635  21.2013   9.1512 H1   1 LUMO      -0.232842
  279 H      8.1225  21.8206   8.3747 H1   1 LUMO      -0.233578
  280 H     11.5447  23.7134  14.3539 H1   1 LUMO      -0.231609
  281 H     11.5230  20.6517  14.3499 H1   1 LUMO      -0.241456
  282 H      9.8710  22.4822  12.6488 H1   1 LUMO      -0.253488
  283 H      7.6544  18.6111  13.4412 H1   1 LUMO      -0.214203
  284 H      8.3180  20.0629  13.2427 H1   1 LUMO      -0.226034
  285 H      7.5680  19.4846  12.9192 H1   1 LUMO      -0.211841
  286 H      7.8251  17.7744  12.8658 H1   1 LUMO      -0.201311
  287 H      7.3952  18.5998  12.4472 H1   1 LUMO      -0.199641
  288 H      8.8499  20.3299  12.4244 H1   1 LUMO      -0.226942
  289 H      7.9639  19.9203  12.1009 H1   1 LUMO      -0.212922
  290 H      9.8532  19.8573  12.0280 H1   1 LUMO      -0.227971
  291 H      8.2481  17.5922  11.9609 H1   1 LUMO      -0.194149
  292 H      7.7490  19.0462  11.6103 H1   1 LUMO      -0.200274
  293 H      8.9029  19.9021  11.5186 H1   1 LUMO      -0.220748
  294 H      8.8579  18.0250  11.2893 H1   1 LUMO      -0.196983
  295 H      9.1720  19.0239  11.1049 H1   1 LUMO      -0.209177
  296 H     10.3197  25.6402  19.6163 H1   1 LUMO      -0.199684
  297 H      9.3774  25.4498  19.2843 H1   1 LUMO      -0.201993
  298 H     11.1322  26.0036  19.1072 H1   1 LUMO      -0.192761
  299 H      9.8910  26.2536  18.9518 H1   1 LUMO      -0.189938
  300 H      8.9576  24.7554  18.6939 H1   1 LUMO      -0.212562
  301 H      9.1358  25.8571  18.4008 H1   1 LUMO      -0.194363
  302 H     10.6666  26.4965  18.3473 H1   1 LUMO      -0.186009
  303 H     11.5422  25.9916  18.1935 H1   1 LUMO      -0.191656
  304 H      9.8195  26.3554  17.8207 H1   1 LUMO      -0.187447
  305 H      8.9502  25.0867  17.7407 H1   1 LUMO      -0.206808
  306 H     10.9179  26.1724  17.4185 H1   1 LUMO      -0.189557
  307 H      9.5428  25.6489  17.1456 H1   1 LUMO      -0.197635
  308 H      9.8897  24.7654  16.8194 H1   1 LUMO      -0.213056
  309 H     10.6911  25.3995  16.7998 H1   1 LUMO      -0.201124
  310 H      7.7308  19.1988  17.7688 H1   1 LUMO      -0.300467
  311 H     10.7269  19.5330  17.2877 H1   1 LUMO      -0.296077
  312 H     10.5818  20.3633  16.7059 H1   1 LUMO      -0.289359
  313 H     11.0871  19.6553  23.6323 H1   1 LUMO      -0.347000
  314 H      8.1763  18.6913  23.5261 H1   1 LUMO      -0.347283
  315 H     10.5843  23.7104   9.6255 H1   1 LUMO      -0.256624
  316 H     10.2489  20.6020   9.5862 H1   1 LUMO      -0.258164
  317 H     10.9692  23.5887   8.7027 H1   1 LUMO      -0.246102
  318 H     12.2202  20.6987  15.6044 H1   1 LUMO      -0.236479
  319 H     12.0659  23.7352  15.4398 H1   1 LUMO      -0.225986
  320 H     11.6076  17.4437  13.9693 H1   1 LUMO      -0.212579
  321 H     11.0911  16.5962  13.6776 H1   1 LUMO      -0.202838
  322 H     12.0891  18.1653  13.4148 H1   1 LUMO      -0.210628
  323 H     11.9516  16.8608  13.2264 H1   1 LUMO      -0.196392
  324 H     10.5474  16.2449  12.8837 H1   1 LUMO      -0.193373
  325 H     12.3323  17.5994  12.6209 H1   1 LUMO      -0.197002
  326 H     11.4668  16.3697  12.4906 H1   1 LUMO      -0.188209
  327 H     12.0523  18.5142  12.2824 H1   1 LUMO      -0.207625
  328 H      9.9782  16.6028  12.1235 H1   1 LUMO      -0.192650
  329 H     10.7796  23.8213   7.7350 H1   1 LUMO      -0.216455
  330 H     11.5509  23.3192   7.3374 H1   1 LUMO      -0.223019
  331 H     10.1194  23.9523   6.9562 H1   1 LUMO      -0.193047
  332 H     11.5438  22.5497   6.6689 H1   1 LUMO      -0.214096
  333 H     11.0118  23.7221   6.5586 H1   1 LUMO      -0.191268
  334 H     10.6895  20.3771   7.9906 H1   1 LUMO      -0.220454
  335 H      9.9902  20.0886   7.3221 H1   1 LUMO      -0.196306
  336 H     11.2466  20.5106   7.1472 H1   1 LUMO      -0.206275
  337 H     10.5086  20.3548   6.4787 H1   1 LUMO      -0.186125
  338 H     13.2958  20.7407  11.0430 H1   1 LUMO      -0.229170
  339 H     12.9219  19.9916  10.4953 H1   1 LUMO      -0.219504
  340 H     13.8357  20.3670  10.2839 H1   1 LUMO      -0.209493
  341 H     12.2157  23.7093   8.1474 H1   1 LUMO      -0.230228
  342 H     12.5464  23.7832   7.2064 H1   1 LUMO      -0.203899
  343 H     11.9081  17.0503  11.8851 H1   1 LUMO      -0.189115
  344 H     10.8869  16.5983  11.6874 H1   1 LUMO      -0.187422
  345 H     14.6657  21.7300   9.0238 H1   1 LUMO      -0.208095
  346 H     11.3447  18.5676  11.5469 H1   1 LUMO      -0.208799
  347 H     14.4414  20.8978   8.5071 H1   1 LUMO      -0.203640
  348 H     15.0699  22.2746   8.2877 H1   1 LUMO      -0.192545
  349 H     10.3909  17.3889  11.2830 H1   1 LUMO      -0.194850
  350 H     14.9933  21.3758   7.8164 H1   1 LUMO      -0.186413
  351 H     10.4626  23.2352  21.0909 H1   1 LUMO      -0.243091
  352 H     13.3554  21.4204  12.6460 H1   1 LUMO      -0.231990
  353 H     10.0640  24.0944  20.7698 H1   1 LUMO      -0.224589
  354 H      9.5256  23.0938  20.7616 H1   1 LUMO      -0.252728
  355 H     11.3854  23.4390  20.7599 H1   1 LUMO      -0.226243
  356 H     10.8797  22.3894  20.7529 H1   1 LUMO      -0.256653
  357 H     13.4215  22.7209  12.3166 H1   1 LUMO      -0.229581
  358 H     13.6241  21.8743  11.7835 H1   1 LUMO      -0.229100
  359 H      9.7069  22.1880  20.3614 H1   1 LUMO      -0.276336
  360 H      9.2463  23.8911  20.2246 H1   1 LUMO      -0.229079
  361 H     11.6961  22.6531  20.2228 H1   1 LUMO      -0.234504
  362 H     13.6531  20.4995  13.9167 H1   1 LUMO      -0.210052
  363 H     14.9174  21.4038  13.3119 H1   1 LUMO      -0.192714
  364 H      9.0266  22.8750  19.9220 H1   1 LUMO      -0.252079
  365 H     11.0983  21.9087  19.9018 H1   1 LUMO      -0.257661
  366 H     14.2098  20.7227  13.1115 H1   1 LUMO      -0.202185
  367 H     14.0583  21.5434  16.5122 H1   1 LUMO      -0.209057
  368 H      8.0330  18.5011  18.9297 H1   1 LUMO      -0.316913
  369 H     10.8118  18.5217  18.7259 H1   1 LUMO      -0.313824
  370 H     14.9202  21.3016  16.0525 H1   1 LUMO      -0.193253
  371 H     14.0864  20.6497  16.0465 H1   1 LUMO      -0.205728
  372 H     14.7095  23.3315  15.4917 H1   1 LUMO      -0.191619
  373 H     13.9842  24.0283  15.2168 H1   1 LUMO      -0.195514
  374 H      7.8161  19.5559  24.3119 H1   1 LUMO      -0.346332
  375 H     10.2552  21.2431  24.3086 H1   1 LUMO      -0.351367
  376 H     14.8030  23.8953  14.6528 H1   1 LUMO      -0.185498
  377 H     10.9345  20.5765  23.9966 H1   1 LUMO      -0.342732
  378 H     13.8476  24.1452  14.2223 H1   1 LUMO      -0.196086
  379 H     10.8009  20.5889  10.6185 H1   1 LUMO      -0.261762
  380 H     11.5131  21.3695  19.0637 H1   1 LUMO      -0.254804
  381 H     11.4889  23.5615  10.5444 H1   1 LUMO      -0.257521
  382 H     13.4546  21.3934  18.3030 H1   1 LUMO      -0.217642
  383 H     11.4768  20.5347  16.2836 H1   1 LUMO      -0.248199
  384 H     14.1410  21.6756  17.6242 H1   1 LUMO      -0.205550
  385 H     13.7106  20.8126  17.3074 H1   1 LUMO      -0.213743
  386 H     10.8377  23.7618  15.7418 H1   1 LUMO      -0.230657
  387 H     13.2510  23.5097  19.7584 H1   1 LUMO      -0.204038
  388 H      7.9438  19.3014  19.8183 H1   1 LUMO      -0.325926
  389 H     11.0887  19.7098  19.3194 H1   1 LUMO      -0.315659
  390 H     13.8241  24.1111  19.1869 H1   1 LUMO      -0.191614
  391 H     13.7479  22.8524  19.1663 H1   1 LUMO      -0.203629
  392 H     10.9960  19.4795  18.3497 H1   1 LUMO      -0.301227
  393 H     14.1042  23.3304  18.3611 H1   1 LUMO      -0.196250
  394 H     12.8938  25.1431  17.8161 H1   1 LUMO      -0.193624
  395 H      7.5271  20.3891  23.7983 H1   1 LUMO      -0.335904
  396 H     12.4542  25.3441  16.9154 H1   1 LUMO      -0.193340
  397 H     10.5068  21.7455  23.4636 H1   1 LUMO      -0.323305
  398 H     13.2320  24.8046  16.5914 H1   1 LUMO      -0.193609
  399 H     11.9479  24.7246  16.2894 H1   1 LUMO      -0.205428
  400 H     10.1527  23.3898  12.2635 H1   1 LUMO      -0.246296
  401 H      9.6183  21.0876  11.8829 H1   1 LUMO      -0.247984
  402 H     10.8597  23.8214  11.6576 H1   1 LUMO      -0.242259
  403 H     10.4045  20.5603  11.5398 H1   1 LUMO      -0.248782
  404 H      8.7507  21.4492  12.2445 H1   1 LUMO      -0.237897
  405 H      9.2273  23.7379  12.0487 H1   1 LUMO      -0.229709
  406 H      7.0635  23.1392  10.8686 H1   1 LUMO      -0.215779
  407 H      6.8862  22.1509  10.7420 H1   1 LUMO      -0.217253
  408 H      6.3088  22.8366  10.2480 H1   1 LUMO      -0.201577
  409 H      7.1099  23.9219  10.2455 H1   1 LUMO      -0.209302
  410 H      7.0467  21.3932  10.0668 H1   1 LUMO      -0.219755
  411 H      6.3072  21.9829   9.6970 H1   1 LUMO      -0.202821
  412 H      6.4255  23.5938   9.5703 H1   1 LUMO      -0.196636
  413 H      7.3953  24.1698   9.3167 H1   1 LUMO      -0.208418
  414 H      6.8830  21.4616   9.0613 H1   1 LUMO      -0.209944
  415 H      6.2102  22.7667   9.0437 H1   1 LUMO      -0.193468
  416 H      6.8393  23.6265   8.6566 H1   1 LUMO      -0.197344
  417 H      7.8174  23.7389   8.4554 H1   1 LUMO      -0.213305
  418 H      6.7719  22.2252   8.3836 H1   1 LUMO      -0.199839
  419 H      8.0639  22.8035   8.0825 H1   1 LUMO      -0.224154
  420 H      8.0545  22.5965  14.3121 H1   1 LUMO      -0.226928
  421 H      8.0716  21.6449  13.9624 H1   1 LUMO      -0.229956
  422 H      8.2579  23.0896  13.4610 H1   1 LUMO      -0.221438
  423 H      8.0926  22.1610  13.0995 H1   1 LUMO      -0.226332
  424 H      8.4476  23.5104  18.2264 H1   1 LUMO      -0.235427
  425 H      7.2054  22.5925  17.0869 H1   1 LUMO      -0.239722
  426 H      7.2568  23.3353  16.3876 H1   1 LUMO      -0.225536
  427 H      6.9370  22.0735  16.2744 H1   1 LUMO      -0.237504
  428 H      8.0232  23.5590  15.7809 H1   1 LUMO      -0.228766
  429 H      7.1460  22.7584  15.5632 H1   1 LUMO      -0.227041
  430 H      7.8353  16.7904  17.8722 H1   1 LUMO      -0.254436
  431 H      7.9383  16.0342  17.2198 H1   1 LUMO      -0.233904
  432 H      7.7876  17.4146  17.0756 H1   1 LUMO      -0.259437
  433 H      8.6417  15.8620  16.5292 H1   1 LUMO      -0.230839
  434 H      7.9501  16.6470  16.4114 H1   1 LUMO      -0.238360
  435 H      9.4365  16.3291  19.7938 H1   1 LUMO      -0.279307
  436 H     11.0971  16.5501  18.3681 H1   1 LUMO      -0.256508
  437 H     11.5219  17.2516  17.7612 H1   1 LUMO      -0.255779
  438 H     10.9320  15.9056  17.6024 H1   1 LUMO      -0.238420
  439 H     11.4144  16.5914  17.0073 H1   1 LUMO      -0.238647
  440 H     11.1758  17.6285  16.8796 H1   1 LUMO      -0.258005
  441 H      7.4327  20.4465  15.2706 H1   1 LUMO      -0.243146
  442 H      7.7465  20.7645  14.3650 H1   1 LUMO      -0.233122
  443 H      7.3280  18.0679  15.9613 H1   1 LUMO      -0.240500
  444 H      7.9278  17.3369  15.5998 H1   1 LUMO      -0.236151
  445 H      7.2780  17.8103  14.9932 H1   1 LUMO      -0.223254
  446 H     11.3399  17.6089  15.8930 H1   1 LUMO      -0.235669
  447 H     10.6557  16.9615  15.4690 H1   1 LUMO      -0.229280
  448 H     10.0470  17.2952  21.3352 H1   1 LUMO      -0.334634
  449 H     10.9957  17.5105  21.0720 H1   1 LUMO      -0.326522
  450 H     10.4142  16.8946  20.4890 H1   1 LUMO      -0.310066
  451 H      8.0593  22.3189  21.3671 H1   1 LUMO      -0.287798
  452 H      7.7570  21.7189  20.5883 H1   1 LUMO      -0.287470
  453 H     11.9381  17.3960  22.6466 H1   1 LUMO      -0.279221
  454 H     11.5298  16.4837  22.5035 H1   1 LUMO      -0.270791
  455 H     11.6657  18.2082  22.1015 H1   1 LUMO      -0.309075
  456 H     10.7051  16.2611  21.9396 H1   1 LUMO      -0.280167
  457 H     11.7857  17.0467  21.7174 H1   1 LUMO      -0.278725
  458 H      9.0145  16.2350  23.8849 H1   1 LUMO      -0.269800
  459 H      8.3486  16.8507  23.4491 H1   1 LUMO      -0.285620
  460 H      8.7673  16.0770  22.9230 H1   1 LUMO      -0.271066
  461 H      8.5019  16.9082  22.4327 H1   1 LUMO      -0.298805
  462 H     10.8343  17.4753  25.0569 H1   1 LUMO      -0.283410
  463 H     11.5332  18.0813  24.6476 H1   1 LUMO      -0.286633
  464 H     11.5516  17.0059  24.5416 H1   1 LUMO      -0.263067
  465 H      9.5047  18.2138  26.6687 H1   1 LUMO      -0.277858
  466 H     10.2736  17.8735  26.0882 H1   1 LUMO      -0.278387
  467 H      9.1793  17.6668  25.8923 H1   1 LUMO      -0.281444
  468 H      9.6706  20.0744  28.1660 H1   1 LUMO      -0.261689
  469 H      9.0085  19.4408  27.7201 H1   1 LUMO      -0.275757
  470 H      8.7108  22.4720  26.5122 H1   1 LUMO      -0.281499
  471 H      7.8825  22.2487  25.9552 H1   1 LUMO      -0.286797
  472 H      8.3863  23.5284  12.5543 H1   1 LUMO      -0.219318
  473 H      7.7216  22.7595  12.3693 H1   1 LUMO      -0.217936
  474 H      7.8457  22.0261   7.4352 H1   1 LUMO      -0.198998
  475 H      8.2076  23.0505   7.1038 H1   1 LUMO      -0.192219
  476 H      8.1215  22.1926   6.4851 H1   1 LUMO      -0.179651
