@<TRIPOS>MOLECULE
gse_normalized | baseline=-97283.613935
   63 0 0 0
SMALL
GASTEIGER
@<TRIPOS>ATOM
    1 H      0.1153   0.3544  -1.7557 H1   1 GSE        0.308895
    2 H     -0.0579  -0.1488   1.5065 H1   1 GSE       -0.226858
    3 H     -0.6981  -0.9363   1.4067 H1   1 GSE        0.077763
    4 H     -0.2356   0.8615   1.3997 H1   1 GSE       -0.179711
    5 H     -1.0953   1.3412   1.1747 H1   1 GSE        0.111372
    6 H     -1.6978  -0.9473   1.1696 H1   1 GSE        0.110550
    7 H     -2.0769   0.9052   0.9799 H1   1 GSE        0.077423
    8 H     -2.3272  -0.1553   0.9782 H1   1 GSE        0.112728
    9 H     -1.0201  -1.5196   0.6417 H1   1 GSE        0.059352
   10 H     -0.2586   1.5301   0.6342 H1   1 GSE        0.107552
   11 H     -2.5635   0.4618   0.2247 H1   1 GSE       -0.034036
   12 H      0.2673   1.2686  -0.1847 H1   1 GSE        0.604357
   13 H     -0.7254  -1.5738  -0.3189 H1   1 GSE        0.151216
   14 H     -2.2265   0.9236  -0.6160 H1   1 GSE        0.139880
   15 H     -0.6673  -1.0622  -1.1839 H1   1 GSE        0.155004
   16 H     -1.9857   0.1934  -1.2602 H1   1 GSE        0.203912
   17 H     -0.8028   0.7056  -1.5173 H1   1 GSE        0.204124
   18 H     -1.1570  -0.2889  -1.5871 H1   1 GSE        0.137253
   19 H      0.8489  -0.5954   1.5252 H1   1 GSE       -0.572204
   20 H      1.5785  -1.0732   1.0227 H1   1 GSE       -0.396642
   21 H      2.0795  -1.0212   0.1545 H1   1 GSE       -0.544697
   22 H      1.5884  -1.7173  -0.3808 H1   1 GSE       -0.022050
   23 H      2.1411  -0.3620  -0.6225 H1   1 GSE       -0.555080
   24 H      0.1418  -1.9963  -0.6583 H1   1 GSE        0.216023
   25 H      0.9527   1.0226  -0.9121 H1   1 GSE        0.684837
   26 H      1.6309   0.3197  -1.1774 H1   1 GSE        0.172041
   27 H      0.9417  -1.6939  -1.1779 H1   1 GSE        0.159697
   28 H      1.4779   0.3724   2.0603 H1   1 GSE       -0.950749
   29 H      1.0794   1.2316   1.7392 H1   1 GSE       -0.553288
   30 H      2.1137   1.0730   1.7345 H1   1 GSE       -0.661250
   31 H      2.3466   0.0010   1.7240 H1   1 GSE       -1.000000
   32 H      2.8401   0.6534   1.1486 H1   1 GSE       -0.792752
   33 H      2.5679  -0.5912   0.9416 H1   1 GSE       -0.899285
   34 H      2.3150   1.5975   0.9006 H1   1 GSE        0.226247
   35 H      2.9458   0.0889   0.3059 H1   1 GSE       -0.889341
   36 H      2.7715   1.0801   0.1648 H1   1 GSE       -0.181149
   37 H     -1.6856   1.6819   0.4291 H1   1 GSE        0.243374
   38 H     -0.8580   2.1470   0.1096 H1   1 GSE        0.348470
   39 H     -1.6727   2.0887  -0.5047 H1   1 GSE        0.198279
   40 H      0.6093  -1.9846   1.3581 H1   1 GSE        0.103280
   41 H      1.4807  -2.0688   0.8421 H1   1 GSE        0.050212
   42 H     -0.2205  -2.0996   0.8104 H1   1 GSE        0.264571
   43 H      0.6430  -2.5969   0.5490 H1   1 GSE        0.040886
   44 H      1.4049   1.9746   1.1475 H1   1 GSE        0.561519
   45 H      0.5930   2.0625   0.5596 H1   1 GSE        0.830694
   46 H      1.9151   2.3512   0.3655 H1   1 GSE        0.900493
   47 H      1.1175   2.3559  -0.2678 H1   1 GSE        1.000000
   48 H      2.3259   1.8228  -0.3884 H1   1 GSE        0.847229
   49 H     -0.2930   1.9398  -0.7179 H1   1 GSE        0.484894
   50 H     -1.7233   1.4590  -1.2981 H1   1 GSE        0.294050
   51 H     -2.3862  -1.0006   0.4184 H1   1 GSE        0.252266
   52 H     -1.7927  -1.7053   0.0143 H1   1 GSE        0.289012
   53 H     -2.8059  -0.3851  -0.2809 H1   1 GSE        0.236037
   54 H     -2.5755  -1.3399  -0.5187 H1   1 GSE        0.140392
   55 H     -1.4956  -1.6679  -0.9583 H1   1 GSE        0.312744
   56 H     -2.4699  -0.6860  -1.2844 H1   1 GSE        0.214830
   57 H     -1.1576   0.1256   2.3218 H1   1 GSE        0.019908
   58 H     -1.7092   0.8546   1.9133 H1   1 GSE        0.154692
   59 H      1.7748  -1.1267  -1.2023 H1   1 GSE        0.013580
   60 H      0.1361  -1.3953  -1.7285 H1   1 GSE        0.248258
   61 H      1.7281  -0.4043  -1.8930 H1   1 GSE        0.111672
   62 H      1.1514  -1.2457  -2.0607 H1   1 GSE        0.057840
   63 H      0.1598  -0.5285  -2.2525 H1   1 GSE        0.172051
