@<TRIPOS>MOLECULE
homo_normalized | baseline=-8.485275
  206 0 0 0
SMALL
GASTEIGER
@<TRIPOS>ATOM
    1 H     -2.3833  -2.8652  -0.4274 H1   1 HOMO      -0.507858
    2 H      3.3862   0.8400   1.7000 H1   1 HOMO      -0.265053
    3 H      3.3012   1.7950   1.4121 H1   1 HOMO      -0.097712
    4 H      2.4916   0.4971   1.4043 H1   1 HOMO      -0.624437
    5 H      4.3068   0.5860   1.4012 H1   1 HOMO      -0.087245
    6 H      4.6792   0.1609  -0.8538 H1   1 HOMO      -0.050427
    7 H      3.3725   2.2726  -0.9334 H1   1 HOMO      -0.007660
    8 H      2.2573   0.1504  -1.0649 H1   1 HOMO      -0.836701
    9 H      4.2479   0.8363  -1.4626 H1   1 HOMO      -0.050526
   10 H      2.9745   1.5366  -1.5018 H1   1 HOMO      -0.251129
   11 H      3.1682   0.1504  -1.5338 H1   1 HOMO      -0.516980
   12 H      2.1662   1.4812   1.6999 H1   1 HOMO      -0.167716
   13 H      1.7630   2.3503   1.4128 H1   1 HOMO       0.040043
   14 H      2.7337   2.5849   1.1706 H1   1 HOMO       0.122407
   15 H      0.9098   2.2683   0.8496 H1   1 HOMO      -0.287255
   16 H      3.3033   2.7033   0.3485 H1   1 HOMO       0.067390
   17 H      0.8687   2.5924  -0.0983 H1   1 HOMO      -0.260720
   18 H      1.3796   2.6432  -0.9775 H1   1 HOMO      -0.016496
   19 H      2.4983   2.7248  -1.1221 H1   1 HOMO       0.138199
   20 H      1.2149   1.7455  -1.3892 H1   1 HOMO      -0.314142
   21 H      1.7167   0.8777  -1.5211 H1   1 HOMO      -0.544164
   22 H      0.9531   0.7752   1.6999 H1   1 HOMO      -0.517350
   23 H     -0.0046   0.8381   1.4067 H1   1 HOMO      -0.634552
   24 H     -0.1988   0.0903  -1.0431 H1   1 HOMO      -0.983799
   25 H      0.0658   0.9705  -1.4412 H1   1 HOMO      -0.581472
   26 H      0.6755   0.0994  -1.5306 H1   1 HOMO      -0.788635
   27 H      0.9742  -0.6372   1.6999 H1   1 HOMO      -0.582813
   28 H      0.1289  -0.1810   1.4091 H1   1 HOMO      -0.825408
   29 H      1.8935  -0.3530   1.4007 H1   1 HOMO      -0.710528
   30 H      0.4723  -1.4507   1.4006 H1   1 HOMO      -0.709530
   31 H      0.9926  -2.0506  -0.9267 H1   1 HOMO      -0.606308
   32 H      0.4007  -1.3665  -1.4203 H1   1 HOMO      -0.737286
   33 H      1.4030  -1.2904  -1.5034 H1   1 HOMO      -0.539348
   34 H      2.2120  -1.2903   1.7000 H1   1 HOMO      -0.237699
   35 H      1.4128  -1.8171   1.4031 H1   1 HOMO      -0.407625
   36 H      3.1326  -1.5444   1.4012 H1   1 HOMO      -0.080122
   37 H      2.3907  -2.2344   1.3938 H1   1 HOMO      -0.032013
   38 H      3.2247  -2.3683   0.8171 H1   1 HOMO       0.056990
   39 H      1.2818  -2.5209   0.6999 H1   1 HOMO      -0.418850
   40 H      3.3910  -2.4357  -0.3874 H1   1 HOMO       0.047434
   41 H      2.6965  -2.4612  -1.1190 H1   1 HOMO       0.020540
   42 H      3.1935  -1.6121  -1.3440 H1   1 HOMO      -0.061057
   43 H      2.6946  -0.7429  -1.5381 H1   1 HOMO      -0.378605
   44 H      3.4024  -0.5782   1.7000 H1   1 HOMO      -0.145250
   45 H      4.2724  -0.5374  -1.4575 H1   1 HOMO       0.055566
   46 H      4.4417   1.7342   1.6832 H1   1 HOMO       0.405258
   47 H      5.0743   2.4708   1.4260 H1   1 HOMO       0.707990
   48 H      4.0732   2.5842   1.2871 H1   1 HOMO       0.497515
   49 H      5.0611   0.2251   0.8497 H1   1 HOMO       0.164433
   50 H      5.8843   2.4794   0.8336 H1   1 HOMO       0.808249
   51 H      6.3245   1.6950   0.3502 H1   1 HOMO       0.769545
   52 H      5.9138   0.5449   0.3436 H1   1 HOMO       0.529880
   53 H      5.6312   3.0386   0.0296 H1   1 HOMO       0.851285
   54 H      6.1646   2.3040  -0.4402 H1   1 HOMO       0.837381
   55 H      5.2496   2.9624  -0.8956 H1   1 HOMO       0.797825
   56 H      4.2609   2.7904  -1.1880 H1   1 HOMO       0.587100
   57 H      4.0079   1.8072  -1.5605 H1   1 HOMO       0.247110
   58 H      4.4987  -1.4287   1.6835 H1   1 HOMO       0.488907
   59 H      4.4321  -0.4595   1.4462 H1   1 HOMO       0.110748
   60 H      5.1771  -2.1232   1.4164 H1   1 HOMO       0.772154
   61 H      4.1648  -2.2937   1.2781 H1   1 HOMO       0.530223
   62 H      5.9990  -2.0537   0.8127 H1   1 HOMO       0.876122
   63 H      6.3701  -1.2380   0.3284 H1   1 HOMO       0.835399
   64 H      5.7161  -2.6758   0.0458 H1   1 HOMO       0.894012
   65 H      6.1011  -0.3478  -0.0988 H1   1 HOMO       0.656856
   66 H      6.2341  -1.9227  -0.4167 H1   1 HOMO       0.907881
   67 H      5.3411  -2.6089  -0.8937 H1   1 HOMO       0.840942
   68 H      4.1017  -2.4316  -1.1276 H1   1 HOMO       0.506576
   69 H      4.8951  -1.9682  -1.5560 H1   1 HOMO       0.701115
   70 H      1.9625   3.2409   0.9876 H1   1 HOMO       0.324076
   71 H      2.7026   3.5382   0.3736 H1   1 HOMO       0.425837
   72 H      1.3068   3.4459   0.2324 H1   1 HOMO       0.280616
   73 H      2.0512   3.7011  -0.4052 H1   1 HOMO       0.463600
   74 H     -0.3360   1.7760   1.5186 H1   1 HOMO      -0.206951
   75 H     -1.1388   2.1660   1.0501 H1   1 HOMO      -0.244109
   76 H     -0.0303   2.6183   1.0419 H1   1 HOMO      -0.018715
   77 H     -0.7953   2.8681   0.4094 H1   1 HOMO      -0.045447
   78 H     -0.0464   3.0081  -0.2404 H1   1 HOMO       0.019627
   79 H     -1.2523   2.5617  -0.4336 H1   1 HOMO      -0.217864
   80 H      0.3697   2.4936  -1.0189 H1   1 HOMO      -0.096955
   81 H     -0.6238   2.3612  -1.2156 H1   1 HOMO      -0.079489
   82 H     -0.5074  -1.2411   1.5246 H1   1 HOMO      -0.794284
   83 H     -1.1146  -1.8491  -1.1545 H1   1 HOMO      -0.826073
   84 H     -0.5078  -0.7906  -1.4366 H1   1 HOMO      -0.887822
   85 H      2.1008  -3.0889   0.9388 H1   1 HOMO       0.091736
   86 H      2.9357  -3.2530   0.4083 H1   1 HOMO       0.291740
   87 H      1.5383  -3.3143   0.1259 H1   1 HOMO      -0.059687
   88 H      2.3769  -3.4738  -0.4192 H1   1 HOMO       0.260324
   89 H      1.5323  -2.8957  -0.7961 H1   1 HOMO      -0.191652
   90 H      4.7154   3.3218   1.0001 H1   1 HOMO       0.847687
   91 H      3.8180   3.5454   0.5796 H1   1 HOMO       0.679920
   92 H      4.7031   3.8741   0.1629 H1   1 HOMO       0.979478
   93 H      3.5329   3.3794  -0.3739 H1   1 HOMO       0.502047
   94 H      6.3174   1.0217  -0.4385 H1   1 HOMO       0.731365
   95 H      5.6941   0.3016  -0.7552 H1   1 HOMO       0.444286
   96 H      6.3919   1.6891  -1.2173 H1   1 HOMO       0.936834
   97 H      5.6741   2.3208  -1.5597 H1   1 HOMO       0.875151
   98 H      6.0399   0.7981  -1.5605 H1   1 HOMO       0.777675
   99 H      5.1188   0.9239  -1.9592 H1   1 HOMO       0.576676
  100 H      5.3071   1.3941   2.0763 H1   1 HOMO       0.742455
  101 H      6.1035   1.8221   1.6441 H1   1 HOMO       0.940316
  102 H      5.6693   0.5723   1.6297 H1   1 HOMO       0.631075
  103 H      4.8488  -2.9741   1.0027 H1   1 HOMO       0.860917
  104 H      3.8958  -3.1268   0.6850 H1   1 HOMO       0.591208
  105 H      4.6514  -3.5669   0.1971 H1   1 HOMO       0.932682
  106 H      3.8929  -3.3064  -0.4095 H1   1 HOMO       0.627290
  107 H      5.3371  -1.0199   2.0748 H1   1 HOMO       0.795457
  108 H      6.1758  -1.3557   1.6452 H1   1 HOMO       1.000000
  109 H      6.0310  -0.3555   1.5248 H1   1 HOMO       0.798294
  110 H      6.4996  -1.0128  -0.7716 H1   1 HOMO       0.927027
  111 H      5.9479  -1.9332  -1.3839 H1   1 HOMO       0.958044
  112 H      6.1055  -0.3506  -1.4240 H1   1 HOMO       0.805197
  113 H      5.1793  -0.3435  -1.8327 H1   1 HOMO       0.565116
  114 H      5.7887  -1.1259  -1.9717 H1   1 HOMO       0.920786
  115 H     -1.3315   0.8200   1.6999 H1   1 HOMO      -0.374440
  116 H     -2.2797   0.6767   1.4054 H1   1 HOMO      -0.428221
  117 H     -2.5761   0.1894  -0.9694 H1   1 HOMO      -0.779311
  118 H     -1.5329   1.9143  -1.2959 H1   1 HOMO      -0.204434
  119 H     -2.1278   0.9254  -1.5015 H1   1 HOMO      -0.336771
  120 H     -1.1183   0.1038  -1.5208 H1   1 HOMO      -0.651102
  121 H     -0.9145   1.1755  -1.6107 H1   1 HOMO      -0.369530
  122 H     -1.4300  -0.6347   1.6999 H1   1 HOMO      -0.598697
  123 H     -2.3527  -0.3689   1.4079 H1   1 HOMO      -0.840686
  124 H     -1.7436  -1.5374   1.3994 H1   1 HOMO      -0.881353
  125 H     -2.3603  -0.6991  -1.4238 H1   1 HOMO      -1.000000
  126 H     -0.4877  -2.6140   1.6761 H1   1 HOMO      -0.118218
  127 H     -0.7401  -3.5613   1.4224 H1   1 HOMO       0.186050
  128 H     -1.3887  -2.7689   1.2623 H1   1 HOMO      -0.214286
  129 H     -0.2396  -4.2444   0.8457 H1   1 HOMO       0.325828
  130 H      0.6739  -4.1467   0.3749 H1   1 HOMO       0.265906
  131 H     -1.0579  -4.2439   0.2533 H1   1 HOMO       0.319538
  132 H     -0.1385  -4.4604  -0.1386 H1   1 HOMO       0.400799
  133 H     -1.0858  -4.0559  -0.7330 H1   1 HOMO       0.281365
  134 H     -1.5081  -2.7797  -1.1434 H1   1 HOMO      -0.271804
  135 H     -0.7891  -3.4340  -1.4691 H1   1 HOMO       0.155494
  136 H     -0.2416  -2.1430  -1.5802 H1   1 HOMO      -0.388070
  137 H     -2.6185   1.5868   1.6998 H1   1 HOMO       0.113283
  138 H     -3.1975   2.3518   1.4114 H1   1 HOMO       0.286272
  139 H     -2.1388   2.4200   1.4072 H1   1 HOMO       0.129921
  140 H     -3.9979   2.0113   0.9105 H1   1 HOMO       0.209462
  141 H     -4.1529   2.3362  -0.0727 H1   1 HOMO       0.192971
  142 H     -3.9527   1.9542  -0.9979 H1   1 HOMO       0.211126
  143 H     -3.1111   2.4143  -1.4095 H1   1 HOMO       0.276029
  144 H     -3.1625   0.8780  -1.4423 H1   1 HOMO      -0.108971
  145 H     -3.7224   0.7658   1.5499 H1   1 HOMO       0.071835
  146 H     -4.5596   1.2179   1.2310 H1   1 HOMO       0.299363
  147 H     -4.8292   0.2732   0.9660 H1   1 HOMO      -0.014102
  148 H     -5.0617   0.2759  -0.6077 H1   1 HOMO      -0.064905
  149 H     -4.6910   1.0096  -1.1914 H1   1 HOMO       0.273128
  150 H     -4.0391   0.2722  -1.4317 H1   1 HOMO      -0.030091
  151 H     -2.7191  -1.3211   1.5402 H1   1 HOMO      -0.898691
  152 H     -2.4755  -2.2415   1.2268 H1   1 HOMO      -0.696116
  153 H     -3.4328  -1.8937   1.1230 H1   1 HOMO      -0.717364
  154 H     -3.0979  -2.6396   0.5439 H1   1 HOMO      -0.507487
  155 H     -3.6862  -2.3231  -0.2255 H1   1 HOMO      -0.596723
  156 H     -3.0453  -2.3569  -1.0150 H1   1 HOMO      -0.597219
  157 H     -2.1378  -2.0118  -1.3131 H1   1 HOMO      -0.799942
  158 H     -3.1833  -1.4409  -1.4059 H1   1 HOMO      -0.840792
  159 H     -3.7498  -0.6447   1.6999 H1   1 HOMO      -0.207107
  160 H     -4.0368  -1.9079  -1.0885 H1   1 HOMO      -0.410663
  161 H     -4.8132  -0.4241  -1.3135 H1   1 HOMO      -0.103887
  162 H     -3.2958  -0.3828  -1.6178 H1   1 HOMO      -0.390760
  163 H     -4.0812  -1.0371  -1.6186 H1   1 HOMO      -0.193515
  164 H     -2.7269   3.2499   1.4536 H1   1 HOMO       0.515552
  165 H     -3.6658   3.2009   1.1030 H1   1 HOMO       0.593209
  166 H     -1.7829   3.3294   1.0958 H1   1 HOMO       0.372816
  167 H     -2.4999   4.0337   0.8743 H1   1 HOMO       0.704754
  168 H     -3.4727   4.0002   0.5323 H1   1 HOMO       0.797958
  169 H     -1.7069   3.9271   0.2699 H1   1 HOMO       0.549087
  170 H     -4.1175   3.3118   0.1937 H1   1 HOMO       0.645604
  171 H     -2.7152   4.3242  -0.0722 H1   1 HOMO       0.805399
  172 H     -3.6180   3.9247  -0.4595 H1   1 HOMO       0.790907
  173 H     -1.5164   3.5172  -0.6403 H1   1 HOMO       0.367579
  174 H     -3.9738   3.0361  -0.7923 H1   1 HOMO       0.550464
  175 H     -2.3992   3.9526  -0.9522 H1   1 HOMO       0.669964
  176 H     -3.1974   3.4427  -1.2863 H1   1 HOMO       0.624450
  177 H     -1.8911   2.8489  -1.2878 H1   1 HOMO       0.221390
  178 H     -4.8210  -1.2099   1.5201 H1   1 HOMO      -0.035532
  179 H     -5.5413  -0.5919   1.1963 H1   1 HOMO       0.187477
  180 H     -5.6106  -1.7301   1.1881 H1   1 HOMO       0.324949
  181 H     -4.5211  -2.1069   1.1800 H1   1 HOMO      -0.053848
  182 H     -6.1970  -1.1216   0.6511 H1   1 HOMO       0.464445
  183 H     -5.2695  -2.5021   0.6429 H1   1 HOMO       0.333365
  184 H     -5.6349   0.0233   0.4046 H1   1 HOMO       0.142031
  185 H     -6.0802  -2.0238   0.2336 H1   1 HOMO       0.531676
  186 H     -4.6316  -2.7011  -0.1170 H1   1 HOMO       0.113785
  187 H     -6.2033  -0.5884  -0.2009 H1   1 HOMO       0.423339
  188 H     -5.5277  -2.4455  -0.5112 H1   1 HOMO       0.414029
  189 H     -6.1802  -1.5027  -0.6184 H1   1 HOMO       0.496546
  190 H     -5.7554  -0.7071  -1.0974 H1   1 HOMO       0.273728
  191 H     -5.4245  -1.7939  -1.2634 H1   1 HOMO       0.267791
  192 H      0.2590  -3.1579   2.0890 H1   1 HOMO       0.277955
  193 H      1.1470  -2.9614   1.6696 H1   1 HOMO       0.091786
  194 H      0.4731  -4.0372   1.6625 H1   1 HOMO       0.480999
  195 H      1.0865  -3.9372  -0.5398 H1   1 HOMO       0.240076
  196 H      0.2971  -4.3357  -1.0419 H1   1 HOMO       0.448047
  197 H      1.2059  -3.5686  -1.4860 H1   1 HOMO       0.289604
  198 H      0.9103  -2.6388  -1.7564 H1   1 HOMO      -0.018018
  199 H      0.0588  -3.8073  -1.8712 H1   1 HOMO       0.436563
  200 H     -1.6270  -3.6975   0.9759 H1   1 HOMO       0.218108
  201 H     -2.3402  -3.5839   0.2838 H1   1 HOMO       0.094477
  202 H     -5.4651   1.4091   0.8437 H1   1 HOMO       0.622337
  203 H     -4.9445   2.2333   0.5787 H1   1 HOMO       0.597722
  204 H     -5.7939   0.9355   0.0121 H1   1 HOMO       0.543844
  205 H     -5.6026   1.9247  -0.1119 H1   1 HOMO       0.754046
  206 H     -4.9747   1.9435  -0.9012 H1   1 HOMO       0.580901
