@<TRIPOS>MOLECULE
homo | baseline=-8.485275
  206 0 0 0
SMALL
GASTEIGER
@<TRIPOS>ATOM
    1 H     -2.3833  -2.8652  -0.4274 H1   1 HOMO      -0.405607
    2 H      3.3862   0.8400   1.7000 H1   1 HOMO      -0.383711
    3 H      3.3012   1.7950   1.4121 H1   1 HOMO      -0.368620
    4 H      2.4916   0.4971   1.4043 H1   1 HOMO      -0.416120
    5 H      4.3068   0.5860   1.4012 H1   1 HOMO      -0.367676
    6 H      4.6792   0.1609  -0.8538 H1   1 HOMO      -0.364356
    7 H      3.3725   2.2726  -0.9334 H1   1 HOMO      -0.360499
    8 H      2.2573   0.1504  -1.0649 H1   1 HOMO      -0.435262
    9 H      4.2479   0.8363  -1.4626 H1   1 HOMO      -0.364365
   10 H      2.9745   1.5366  -1.5018 H1   1 HOMO      -0.382455
   11 H      3.1682   0.1504  -1.5338 H1   1 HOMO      -0.406430
   12 H      2.1662   1.4812   1.6999 H1   1 HOMO      -0.374933
   13 H      1.7630   2.3503   1.4128 H1   1 HOMO      -0.356198
   14 H      2.7337   2.5849   1.1706 H1   1 HOMO      -0.348770
   15 H      0.9098   2.2683   0.8496 H1   1 HOMO      -0.385713
   16 H      3.3033   2.7033   0.3485 H1   1 HOMO      -0.353731
   17 H      0.8687   2.5924  -0.0983 H1   1 HOMO      -0.383320
   18 H      1.3796   2.6432  -0.9775 H1   1 HOMO      -0.361296
   19 H      2.4983   2.7248  -1.1221 H1   1 HOMO      -0.347346
   20 H      1.2149   1.7455  -1.3892 H1   1 HOMO      -0.388138
   21 H      1.7167   0.8777  -1.5211 H1   1 HOMO      -0.408881
   22 H      0.9531   0.7752   1.6999 H1   1 HOMO      -0.406463
   23 H     -0.0046   0.8381   1.4067 H1   1 HOMO      -0.417033
   24 H     -0.1988   0.0903  -1.0431 H1   1 HOMO      -0.448528
   25 H      0.0658   0.9705  -1.4412 H1   1 HOMO      -0.412246
   26 H      0.6755   0.0994  -1.5306 H1   1 HOMO      -0.430928
   27 H      0.9742  -0.6372   1.6999 H1   1 HOMO      -0.412367
   28 H      0.1289  -0.1810   1.4091 H1   1 HOMO      -0.434244
   29 H      1.8935  -0.3530   1.4007 H1   1 HOMO      -0.423884
   30 H      0.4723  -1.4507   1.4006 H1   1 HOMO      -0.423794
   31 H      0.9926  -2.0506  -0.9267 H1   1 HOMO      -0.414486
   32 H      0.4007  -1.3665  -1.4203 H1   1 HOMO      -0.426297
   33 H      1.4030  -1.2904  -1.5034 H1   1 HOMO      -0.408447
   34 H      2.2120  -1.2903   1.7000 H1   1 HOMO      -0.381244
   35 H      1.4128  -1.8171   1.4031 H1   1 HOMO      -0.396568
   36 H      3.1326  -1.5444   1.4012 H1   1 HOMO      -0.367034
   37 H      2.3907  -2.2344   1.3938 H1   1 HOMO      -0.362696
   38 H      3.2247  -2.3683   0.8171 H1   1 HOMO      -0.354669
   39 H      1.2818  -2.5209   0.6999 H1   1 HOMO      -0.397581
   40 H      3.3910  -2.4357  -0.3874 H1   1 HOMO      -0.355531
   41 H      2.6965  -2.4612  -1.1190 H1   1 HOMO      -0.357956
   42 H      3.1935  -1.6121  -1.3440 H1   1 HOMO      -0.365315
   43 H      2.6946  -0.7429  -1.5381 H1   1 HOMO      -0.393951
   44 H      3.4024  -0.5782   1.7000 H1   1 HOMO      -0.372907
   45 H      4.2724  -0.5374  -1.4575 H1   1 HOMO      -0.354798
   46 H      4.4417   1.7342   1.6832 H1   1 HOMO      -0.323263
   47 H      5.0743   2.4708   1.4260 H1   1 HOMO      -0.295962
   48 H      4.0732   2.5842   1.2871 H1   1 HOMO      -0.314943
   49 H      5.0611   0.2251   0.8497 H1   1 HOMO      -0.344980
   50 H      5.8843   2.4794   0.8336 H1   1 HOMO      -0.286921
   51 H      6.3245   1.6950   0.3502 H1   1 HOMO      -0.290411
   52 H      5.9138   0.5449   0.3436 H1   1 HOMO      -0.312024
   53 H      5.6312   3.0386   0.0296 H1   1 HOMO      -0.283040
   54 H      6.1646   2.3040  -0.4402 H1   1 HOMO      -0.284294
   55 H      5.2496   2.9624  -0.8956 H1   1 HOMO      -0.287861
   56 H      4.2609   2.7904  -1.1880 H1   1 HOMO      -0.306864
   57 H      4.0079   1.8072  -1.5605 H1   1 HOMO      -0.337524
   58 H      4.4987  -1.4287   1.6835 H1   1 HOMO      -0.315719
   59 H      4.4321  -0.4595   1.4462 H1   1 HOMO      -0.349821
   60 H      5.1771  -2.1232   1.4164 H1   1 HOMO      -0.290176
   61 H      4.1648  -2.2937   1.2781 H1   1 HOMO      -0.311993
   62 H      5.9990  -2.0537   0.8127 H1   1 HOMO      -0.280800
   63 H      6.3701  -1.2380   0.3284 H1   1 HOMO      -0.284472
   64 H      5.7161  -2.6758   0.0458 H1   1 HOMO      -0.279187
   65 H      6.1011  -0.3478  -0.0988 H1   1 HOMO      -0.300573
   66 H      6.2341  -1.9227  -0.4167 H1   1 HOMO      -0.277936
   67 H      5.3411  -2.6089  -0.8937 H1   1 HOMO      -0.283972
   68 H      4.1017  -2.4316  -1.1276 H1   1 HOMO      -0.314126
   69 H      4.8951  -1.9682  -1.5560 H1   1 HOMO      -0.296582
   70 H      1.9625   3.2409   0.9876 H1   1 HOMO      -0.330584
   71 H      2.7026   3.5382   0.3736 H1   1 HOMO      -0.321407
   72 H      1.3068   3.4459   0.2324 H1   1 HOMO      -0.334503
   73 H      2.0512   3.7011  -0.4052 H1   1 HOMO      -0.318001
   74 H     -0.3360   1.7760   1.5186 H1   1 HOMO      -0.378472
   75 H     -1.1388   2.1660   1.0501 H1   1 HOMO      -0.381822
   76 H     -0.0303   2.6183   1.0419 H1   1 HOMO      -0.361496
   77 H     -0.7953   2.8681   0.4094 H1   1 HOMO      -0.363907
   78 H     -0.0464   3.0081  -0.2404 H1   1 HOMO      -0.358039
   79 H     -1.2523   2.5617  -0.4336 H1   1 HOMO      -0.379456
   80 H      0.3697   2.4936  -1.0189 H1   1 HOMO      -0.368552
   81 H     -0.6238   2.3612  -1.2156 H1   1 HOMO      -0.366977
   82 H     -0.5074  -1.2411   1.5246 H1   1 HOMO      -0.431437
   83 H     -1.1146  -1.8491  -1.1545 H1   1 HOMO      -0.434304
   84 H     -0.5078  -0.7906  -1.4366 H1   1 HOMO      -0.439872
   85 H      2.1008  -3.0889   0.9388 H1   1 HOMO      -0.351536
   86 H      2.9357  -3.2530   0.4083 H1   1 HOMO      -0.333500
   87 H      1.5383  -3.3143   0.1259 H1   1 HOMO      -0.365191
   88 H      2.3769  -3.4738  -0.4192 H1   1 HOMO      -0.336333
   89 H      1.5323  -2.8957  -0.7961 H1   1 HOMO      -0.377092
   90 H      4.7154   3.3218   1.0001 H1   1 HOMO      -0.283364
   91 H      3.8180   3.5454   0.5796 H1   1 HOMO      -0.298493
   92 H      4.7031   3.8741   0.1629 H1   1 HOMO      -0.271479
   93 H      3.5329   3.3794  -0.3739 H1   1 HOMO      -0.314534
   94 H      6.3174   1.0217  -0.4385 H1   1 HOMO      -0.293854
   95 H      5.6941   0.3016  -0.7552 H1   1 HOMO      -0.319743
   96 H      6.3919   1.6891  -1.2173 H1   1 HOMO      -0.275325
   97 H      5.6741   2.3208  -1.5597 H1   1 HOMO      -0.280888
   98 H      6.0399   0.7981  -1.5605 H1   1 HOMO      -0.289678
   99 H      5.1188   0.9239  -1.9592 H1   1 HOMO      -0.307804
  100 H      5.3071   1.3941   2.0763 H1   1 HOMO      -0.292854
  101 H      6.1035   1.8221   1.6441 H1   1 HOMO      -0.275011
  102 H      5.6693   0.5723   1.6297 H1   1 HOMO      -0.302898
  103 H      4.8488  -2.9741   1.0027 H1   1 HOMO      -0.282171
  104 H      3.8958  -3.1268   0.6850 H1   1 HOMO      -0.306493
  105 H      4.6514  -3.5669   0.1971 H1   1 HOMO      -0.275699
  106 H      3.8929  -3.3064  -0.4095 H1   1 HOMO      -0.303240
  107 H      5.3371  -1.0199   2.0748 H1   1 HOMO      -0.288074
  108 H      6.1758  -1.3557   1.6452 H1   1 HOMO      -0.269629
  109 H      6.0310  -0.3555   1.5248 H1   1 HOMO      -0.287818
  110 H      6.4996  -1.0128  -0.7716 H1   1 HOMO      -0.276209
  111 H      5.9479  -1.9332  -1.3839 H1   1 HOMO      -0.273412
  112 H      6.1055  -0.3506  -1.4240 H1   1 HOMO      -0.287196
  113 H      5.1793  -0.3435  -1.8327 H1   1 HOMO      -0.308846
  114 H      5.7887  -1.1259  -1.9717 H1   1 HOMO      -0.276772
  115 H     -1.3315   0.8200   1.6999 H1   1 HOMO      -0.393576
  116 H     -2.2797   0.6767   1.4054 H1   1 HOMO      -0.398426
  117 H     -2.5761   0.1894  -0.9694 H1   1 HOMO      -0.430087
  118 H     -1.5329   1.9143  -1.2959 H1   1 HOMO      -0.378245
  119 H     -2.1278   0.9254  -1.5015 H1   1 HOMO      -0.390179
  120 H     -1.1183   0.1038  -1.5208 H1   1 HOMO      -0.418525
  121 H     -0.9145   1.1755  -1.6107 H1   1 HOMO      -0.393133
  122 H     -1.4300  -0.6347   1.6999 H1   1 HOMO      -0.413799
  123 H     -2.3527  -0.3689   1.4079 H1   1 HOMO      -0.435622
  124 H     -1.7436  -1.5374   1.3994 H1   1 HOMO      -0.439289
  125 H     -2.3603  -0.6991  -1.4238 H1   1 HOMO      -0.449989
  126 H     -0.4877  -2.6140   1.6761 H1   1 HOMO      -0.370470
  127 H     -0.7401  -3.5613   1.4224 H1   1 HOMO      -0.343031
  128 H     -1.3887  -2.7689   1.2623 H1   1 HOMO      -0.379133
  129 H     -0.2396  -4.2444   0.8457 H1   1 HOMO      -0.330426
  130 H      0.6739  -4.1467   0.3749 H1   1 HOMO      -0.335829
  131 H     -1.0579  -4.2439   0.2533 H1   1 HOMO      -0.330993
  132 H     -0.1385  -4.4604  -0.1386 H1   1 HOMO      -0.323665
  133 H     -1.0858  -4.0559  -0.7330 H1   1 HOMO      -0.334435
  134 H     -1.5081  -2.7797  -1.1434 H1   1 HOMO      -0.384320
  135 H     -0.7891  -3.4340  -1.4691 H1   1 HOMO      -0.345786
  136 H     -0.2416  -2.1430  -1.5802 H1   1 HOMO      -0.394805
  137 H     -2.6185   1.5868   1.6998 H1   1 HOMO      -0.349593
  138 H     -3.1975   2.3518   1.4114 H1   1 HOMO      -0.333993
  139 H     -2.1388   2.4200   1.4072 H1   1 HOMO      -0.348092
  140 H     -3.9979   2.0113   0.9105 H1   1 HOMO      -0.340919
  141 H     -4.1529   2.3362  -0.0727 H1   1 HOMO      -0.342407
  142 H     -3.9527   1.9542  -0.9979 H1   1 HOMO      -0.340769
  143 H     -3.1111   2.4143  -1.4095 H1   1 HOMO      -0.334916
  144 H     -3.1625   0.8780  -1.4423 H1   1 HOMO      -0.369636
  145 H     -3.7224   0.7658   1.5499 H1   1 HOMO      -0.353331
  146 H     -4.5596   1.2179   1.2310 H1   1 HOMO      -0.332812
  147 H     -4.8292   0.2732   0.9660 H1   1 HOMO      -0.361080
  148 H     -5.0617   0.2759  -0.6077 H1   1 HOMO      -0.365662
  149 H     -4.6910   1.0096  -1.1914 H1   1 HOMO      -0.335178
  150 H     -4.0391   0.2722  -1.4317 H1   1 HOMO      -0.362522
  151 H     -2.7191  -1.3211   1.5402 H1   1 HOMO      -0.440853
  152 H     -2.4755  -2.2415   1.2268 H1   1 HOMO      -0.422584
  153 H     -3.4328  -1.8937   1.1230 H1   1 HOMO      -0.424501
  154 H     -3.0979  -2.6396   0.5439 H1   1 HOMO      -0.405574
  155 H     -3.6862  -2.3231  -0.2255 H1   1 HOMO      -0.413621
  156 H     -3.0453  -2.3569  -1.0150 H1   1 HOMO      -0.413666
  157 H     -2.1378  -2.0118  -1.3131 H1   1 HOMO      -0.431947
  158 H     -3.1833  -1.4409  -1.4059 H1   1 HOMO      -0.435631
  159 H     -3.7498  -0.6447   1.6999 H1   1 HOMO      -0.378486
  160 H     -4.0368  -1.9079  -1.0885 H1   1 HOMO      -0.396842
  161 H     -4.8132  -0.4241  -1.3135 H1   1 HOMO      -0.369177
  162 H     -3.2958  -0.3828  -1.6178 H1   1 HOMO      -0.395047
  163 H     -4.0812  -1.0371  -1.6186 H1   1 HOMO      -0.377260
  164 H     -2.7269   3.2499   1.4536 H1   1 HOMO      -0.313316
  165 H     -3.6658   3.2009   1.1030 H1   1 HOMO      -0.306313
  166 H     -1.7829   3.3294   1.0958 H1   1 HOMO      -0.326188
  167 H     -2.4999   4.0337   0.8743 H1   1 HOMO      -0.296254
  168 H     -3.4727   4.0002   0.5323 H1   1 HOMO      -0.287849
  169 H     -1.7069   3.9271   0.2699 H1   1 HOMO      -0.310292
  170 H     -4.1175   3.3118   0.1937 H1   1 HOMO      -0.301588
  171 H     -2.7152   4.3242  -0.0722 H1   1 HOMO      -0.287178
  172 H     -3.6180   3.9247  -0.4595 H1   1 HOMO      -0.288485
  173 H     -1.5164   3.5172  -0.6403 H1   1 HOMO      -0.326660
  174 H     -3.9738   3.0361  -0.7923 H1   1 HOMO      -0.310168
  175 H     -2.3992   3.9526  -0.9522 H1   1 HOMO      -0.299391
  176 H     -3.1974   3.4427  -1.2863 H1   1 HOMO      -0.303496
  177 H     -1.8911   2.8489  -1.2878 H1   1 HOMO      -0.339844
  178 H     -4.8210  -1.2099   1.5201 H1   1 HOMO      -0.363013
  179 H     -5.5413  -0.5919   1.1963 H1   1 HOMO      -0.342902
  180 H     -5.6106  -1.7301   1.1881 H1   1 HOMO      -0.330505
  181 H     -4.5211  -2.1069   1.1800 H1   1 HOMO      -0.364665
  182 H     -6.1970  -1.1216   0.6511 H1   1 HOMO      -0.317925
  183 H     -5.2695  -2.5021   0.6429 H1   1 HOMO      -0.329746
  184 H     -5.6349   0.0233   0.4046 H1   1 HOMO      -0.347000
  185 H     -6.0802  -2.0238   0.2336 H1   1 HOMO      -0.311862
  186 H     -4.6316  -2.7011  -0.1170 H1   1 HOMO      -0.349548
  187 H     -6.2033  -0.5884  -0.2009 H1   1 HOMO      -0.321632
  188 H     -5.5277  -2.4455  -0.5112 H1   1 HOMO      -0.322472
  189 H     -6.1802  -1.5027  -0.6184 H1   1 HOMO      -0.315030
  190 H     -5.7554  -0.7071  -1.0974 H1   1 HOMO      -0.335124
  191 H     -5.4245  -1.7939  -1.2634 H1   1 HOMO      -0.335659
  192 H      0.2590  -3.1579   2.0890 H1   1 HOMO      -0.334743
  193 H      1.1470  -2.9614   1.6696 H1   1 HOMO      -0.351531
  194 H      0.4731  -4.0372   1.6625 H1   1 HOMO      -0.316432
  195 H      1.0865  -3.9372  -0.5398 H1   1 HOMO      -0.338159
  196 H      0.2971  -4.3357  -1.0419 H1   1 HOMO      -0.319404
  197 H      1.2059  -3.5686  -1.4860 H1   1 HOMO      -0.333692
  198 H      0.9103  -2.6388  -1.7564 H1   1 HOMO      -0.361434
  199 H      0.0588  -3.8073  -1.8712 H1   1 HOMO      -0.320439
  200 H     -1.6270  -3.6975   0.9759 H1   1 HOMO      -0.340140
  201 H     -2.3402  -3.5839   0.2838 H1   1 HOMO      -0.351289
  202 H     -5.4651   1.4091   0.8437 H1   1 HOMO      -0.303686
  203 H     -4.9445   2.2333   0.5787 H1   1 HOMO      -0.305906
  204 H     -5.7939   0.9355   0.0121 H1   1 HOMO      -0.310765
  205 H     -5.6026   1.9247  -0.1119 H1   1 HOMO      -0.291809
  206 H     -4.9747   1.9435  -0.9012 H1   1 HOMO      -0.307423
