@<TRIPOS>MOLECULE
hard | baseline=0.303355
   30 0 0 0
SMALL
GASTEIGER
@<TRIPOS>ATOM
    1 H      0.9697   1.4517  -0.3462 H1   1 HARD       0.003248
    2 H      0.0046  -0.0118   1.6371 H1   1 HARD       0.003355
    3 H     -0.3940   0.8474   1.3160 H1   1 HARD       0.005510
    4 H      0.6404   0.6888   1.3113 H1   1 HARD       0.004804
    5 H     -0.9324  -0.1532   1.3078 H1   1 HARD       0.001312
    6 H      0.8733  -0.3832   1.3008 H1   1 HARD       0.000750
    7 H     -0.1044  -0.9493   1.2996 H1   1 HARD      -0.000060
    8 H     -1.2117   0.6441   0.7708 H1   1 HARD       0.002304
    9 H     -0.9490  -0.9966   0.7626 H1   1 HARD      -0.002319
   10 H      0.6866  -1.2049   0.7394 H1   1 HARD      -0.002245
   11 H      1.3667   0.2692   0.7254 H1   1 HARD       0.000692
   12 H      0.2079   1.3898   0.6964 H1   1 HARD       0.005888
   13 H     -1.4849  -0.2233   0.3533 H1   1 HARD      -0.002342
   14 H      1.3769  -0.6314   0.2429 H1   1 HARD      -0.003405
   15 H     -1.1784   0.9059  -0.2010 H1   1 HARD       0.002635
   16 H      1.3788   0.5163  -0.2606 H1   1 HARD       0.001114
   17 H     -1.2028  -0.6891  -0.5064 H1   1 HARD      -0.002699
   18 H      1.1977  -0.4092  -0.7245 H1   1 HARD      -0.001094
   19 H     -1.0712   0.2294  -0.9365 H1   1 HARD       0.002435
   20 H      0.5385   0.0787  -1.3020 H1   1 HARD       0.004573
   21 H     -0.5544   1.6573   0.0963 H1   1 HARD       0.003907
   22 H      0.1049   1.9419  -0.6149 H1   1 HARD       0.003382
   23 H     -0.7853   1.5624  -0.8836 H1   1 HARD       0.003207
   24 H      0.8639   1.0262  -1.2563 H1   1 HARD       0.003488
   25 H     -0.0599   1.3066  -1.5330 H1   1 HARD       0.003651
   26 H     -0.1872  -1.5608   0.4010 H1   1 HARD      -0.002556
   27 H      0.6590  -1.7058  -0.1487 H1   1 HARD      -0.002972
   28 H     -0.5515  -1.5734  -1.1519 H1   1 HARD      -0.001660
   29 H      0.7665  -1.3762  -1.1522 H1   1 HARD      -0.001740
   30 H     -0.7420  -0.6106  -1.4006 H1   1 HARD       0.000207
