@<TRIPOS>MOLECULE
cp | baseline=-0.096540
   30 0 0 0
SMALL
GASTEIGER
@<TRIPOS>ATOM
    1 H      0.9697   1.4517  -0.3462 H1   1 CP        -0.028289
    2 H      0.0046  -0.0118   1.6371 H1   1 CP        -0.029771
    3 H     -0.3940   0.8474   1.3160 H1   1 CP        -0.031235
    4 H      0.6404   0.6888   1.3113 H1   1 CP        -0.031095
    5 H     -0.9324  -0.1532   1.3078 H1   1 CP        -0.031014
    6 H      0.8733  -0.3832   1.3008 H1   1 CP        -0.030918
    7 H     -0.1044  -0.9493   1.2996 H1   1 CP        -0.029594
    8 H     -1.2117   0.6441   0.7708 H1   1 CP        -0.032030
    9 H     -0.9490  -0.9966   0.7626 H1   1 CP        -0.032473
   10 H      0.6866  -1.2049   0.7394 H1   1 CP        -0.031641
   11 H      1.3667   0.2692   0.7254 H1   1 CP        -0.032928
   12 H      0.2079   1.3898   0.6964 H1   1 CP        -0.031958
   13 H     -1.4849  -0.2233   0.3533 H1   1 CP        -0.035773
   14 H      1.3769  -0.6314   0.2429 H1   1 CP        -0.036292
   15 H     -1.1784   0.9059  -0.2010 H1   1 CP        -0.032544
   16 H      1.3788   0.5163  -0.2606 H1   1 CP        -0.033690
   17 H     -1.2028  -0.6891  -0.5064 H1   1 CP        -0.035889
   18 H      1.1977  -0.4092  -0.7245 H1   1 CP        -0.035491
   19 H     -1.0712   0.2294  -0.9365 H1   1 CP        -0.034245
   20 H      0.5385   0.0787  -1.3020 H1   1 CP        -0.033807
   21 H     -0.5544   1.6573   0.0963 H1   1 CP        -0.028669
   22 H      0.1049   1.9419  -0.6149 H1   1 CP        -0.025143
   23 H     -0.7853   1.5624  -0.8836 H1   1 CP        -0.026148
   24 H      0.8639   1.0262  -1.2563 H1   1 CP        -0.027816
   25 H     -0.0599   1.3066  -1.5330 H1   1 CP        -0.025526
   26 H     -0.1872  -1.5608   0.4010 H1   1 CP        -0.029941
   27 H      0.6590  -1.7058  -0.1487 H1   1 CP        -0.028134
   28 H     -0.5515  -1.5734  -1.1519 H1   1 CP        -0.025184
   29 H      0.7665  -1.3762  -1.1522 H1   1 CP        -0.026417
   30 H     -0.7420  -0.6106  -1.4006 H1   1 CP        -0.029285
