@<TRIPOS>MOLECULE
t3_exe | baseline=2.870800
  203 0 0 0
SMALL
GASTEIGER
@<TRIPOS>ATOM
    1 H      0.5676   2.4746  -0.8958 H1   1 T3_EXE    -0.022122
    2 H      3.3862   0.8400   1.7000 H1   1 T3_EXE     0.039232
    3 H      3.3012   1.7950   1.4121 H1   1 T3_EXE     0.048565
    4 H      2.4916   0.4971   1.4043 H1   1 T3_EXE     0.054381
    5 H      4.3068   0.5860   1.4012 H1   1 T3_EXE     0.022920
    6 H      4.6792   0.1609  -0.8538 H1   1 T3_EXE     0.019911
    7 H      3.3725   2.2726  -0.9334 H1   1 T3_EXE     0.042498
    8 H      2.2573   0.1504  -1.0649 H1   1 T3_EXE     0.056401
    9 H      4.2479   0.8363  -1.4626 H1   1 T3_EXE     0.026902
   10 H      2.9745   1.5366  -1.5018 H1   1 T3_EXE     0.055332
   11 H      3.1682   0.1504  -1.5338 H1   1 T3_EXE     0.033682
   12 H      2.1662   1.4812   1.6999 H1   1 T3_EXE     0.047960
   13 H      1.7630   2.3503   1.4128 H1   1 T3_EXE     0.030065
   14 H      2.7337   2.5849   1.1706 H1   1 T3_EXE     0.036777
   15 H      0.9098   2.2683   0.8496 H1   1 T3_EXE    -0.002967
   16 H      3.3033   2.7033   0.3485 H1   1 T3_EXE     0.034597
   17 H      1.5414   2.6499  -1.0802 H1   1 T3_EXE     0.021867
   18 H      2.4900   2.4259  -1.3827 H1   1 T3_EXE     0.037534
   19 H      1.2149   1.7455  -1.3892 H1   1 T3_EXE     0.024780
   20 H      1.7167   0.8777  -1.5211 H1   1 T3_EXE     0.047163
   21 H      0.9531   0.7752   1.6999 H1   1 T3_EXE     0.016986
   22 H     -0.0046   0.8381   1.4067 H1   1 T3_EXE    -0.028144
   23 H     -0.1988   0.0903  -1.0431 H1   1 T3_EXE    -0.017921
   24 H      0.0658   0.9705  -1.4412 H1   1 T3_EXE    -0.029383
   25 H      0.6755   0.0994  -1.5306 H1   1 T3_EXE     0.011528
   26 H      0.9742  -0.6372   1.6999 H1   1 T3_EXE     0.024291
   27 H      0.1289  -0.1810   1.4091 H1   1 T3_EXE    -0.000405
   28 H      1.8935  -0.3530   1.4007 H1   1 T3_EXE     0.055767
   29 H      0.4723  -1.4507   1.4006 H1   1 T3_EXE     0.020815
   30 H      0.9926  -2.0506  -0.9267 H1   1 T3_EXE     0.037537
   31 H      0.4007  -1.3665  -1.4203 H1   1 T3_EXE     0.019075
   32 H      1.4030  -1.2904  -1.5034 H1   1 T3_EXE     0.050882
   33 H      2.2120  -1.2903   1.7000 H1   1 T3_EXE     0.074908
   34 H      1.4128  -1.8171   1.4031 H1   1 T3_EXE     0.052841
   35 H      3.1326  -1.5444   1.4012 H1   1 T3_EXE     0.074519
   36 H      2.3907  -2.2344   1.3938 H1   1 T3_EXE     0.069978
   37 H      3.2247  -2.3683   0.8171 H1   1 T3_EXE     0.060580
   38 H      1.2818  -2.5209   0.6999 H1   1 T3_EXE     0.043580
   39 H      3.3910  -2.4357  -0.3874 H1   1 T3_EXE     0.052857
   40 H      2.6965  -2.4612  -1.1190 H1   1 T3_EXE     0.066688
   41 H      3.1935  -1.6121  -1.3440 H1   1 T3_EXE     0.072772
   42 H      2.6946  -0.7429  -1.5381 H1   1 T3_EXE     0.070986
   43 H      3.4024  -0.5782   1.7000 H1   1 T3_EXE     0.036602
   44 H      4.2724  -0.5374  -1.4575 H1   1 T3_EXE     0.018404
   45 H      4.4417   1.7342   1.6832 H1   1 T3_EXE     0.029289
   46 H      5.0743   2.4708   1.4260 H1   1 T3_EXE     0.025564
   47 H      4.0732   2.5842   1.2871 H1   1 T3_EXE     0.028958
   48 H      5.0611   0.2251   0.8497 H1   1 T3_EXE     0.024480
   49 H      5.8843   2.4794   0.8336 H1   1 T3_EXE     0.024695
   50 H      6.3245   1.6950   0.3502 H1   1 T3_EXE     0.025206
   51 H      5.9138   0.5449   0.3436 H1   1 T3_EXE     0.026050
   52 H      5.6312   3.0386   0.0296 H1   1 T3_EXE     0.023695
   53 H      6.1646   2.3040  -0.4402 H1   1 T3_EXE     0.024362
   54 H      5.2496   2.9624  -0.8956 H1   1 T3_EXE     0.024227
   55 H      4.2609   2.7904  -1.1880 H1   1 T3_EXE     0.026879
   56 H      4.0079   1.8072  -1.5605 H1   1 T3_EXE     0.033831
   57 H      4.4987  -1.4287   1.6835 H1   1 T3_EXE     0.026747
   58 H      4.4321  -0.4595   1.4462 H1   1 T3_EXE     0.018863
   59 H      5.1771  -2.1232   1.4164 H1   1 T3_EXE     0.022398
   60 H      4.1648  -2.2937   1.2781 H1   1 T3_EXE     0.033277
   61 H      5.9990  -2.0537   0.8127 H1   1 T3_EXE     0.019873
   62 H      6.3701  -1.2380   0.3284 H1   1 T3_EXE     0.020275
   63 H      5.7161  -2.6758   0.0458 H1   1 T3_EXE     0.021585
   64 H      6.1011  -0.3478  -0.0988 H1   1 T3_EXE     0.022897
   65 H      6.2341  -1.9227  -0.4167 H1   1 T3_EXE     0.019756
   66 H      5.3411  -2.6089  -0.8937 H1   1 T3_EXE     0.022355
   67 H      4.1017  -2.4316  -1.1276 H1   1 T3_EXE     0.034192
   68 H      4.8951  -1.9682  -1.5560 H1   1 T3_EXE     0.024113
   69 H      1.9625   3.2409   0.9876 H1   1 T3_EXE     0.020865
   70 H      1.1423   3.1680   0.4188 H1   1 T3_EXE     0.005448
   71 H      2.7026   3.5382   0.3736 H1   1 T3_EXE     0.023919
   72 H      1.8142   3.7359  -0.0833 H1   1 T3_EXE     0.015239
   73 H      3.0026   3.1623  -0.5202 H1   1 T3_EXE     0.028931
   74 H     -0.3360   1.7760   1.5186 H1   1 T3_EXE    -0.038779
   75 H     -1.1388   2.1660   1.0501 H1   1 T3_EXE    -0.033591
   76 H     -0.0303   2.6183   1.0419 H1   1 T3_EXE    -0.023013
   77 H     -0.7953   2.8681   0.4094 H1   1 T3_EXE     0.029705
   78 H      0.1993   2.9725   0.1333 H1   1 T3_EXE     0.003009
   79 H     -1.2523   2.5617  -0.4336 H1   1 T3_EXE    -0.000218
   80 H     -0.4187   2.6401  -1.0173 H1   1 T3_EXE    -0.013064
   81 H     -0.9350   1.8424  -1.3301 H1   1 T3_EXE    -0.036218
   82 H     -4.6009   1.4370  -1.1815 H1   1 T3_EXE    -0.038969
   83 H     -0.5074  -1.2411   1.5246 H1   1 T3_EXE     0.001665
   84 H     -1.1146  -1.8491  -1.1545 H1   1 T3_EXE    -0.007271
   85 H     -0.5078  -0.7906  -1.4366 H1   1 T3_EXE    -0.005535
   86 H      2.1008  -3.0889   0.9388 H1   1 T3_EXE     0.047265
   87 H      2.9357  -3.2530   0.4083 H1   1 T3_EXE     0.045339
   88 H      1.5383  -3.3143   0.1259 H1   1 T3_EXE     0.036677
   89 H      2.3769  -3.4738  -0.4192 H1   1 T3_EXE     0.042286
   90 H      1.5323  -2.8957  -0.7961 H1   1 T3_EXE     0.043067
   91 H      4.7154   3.3218   1.0001 H1   1 T3_EXE     0.022845
   92 H      3.8180   3.5454   0.5796 H1   1 T3_EXE     0.023526
   93 H      4.7031   3.8741   0.1629 H1   1 T3_EXE     0.020621
   94 H      3.8627   3.6683  -0.4131 H1   1 T3_EXE     0.022689
   95 H      6.3174   1.0217  -0.4385 H1   1 T3_EXE     0.025035
   96 H      5.6941   0.3016  -0.7552 H1   1 T3_EXE     0.025501
   97 H      6.3919   1.6891  -1.2173 H1   1 T3_EXE     0.023124
   98 H      5.6741   2.3208  -1.5597 H1   1 T3_EXE     0.023697
   99 H      6.0399   0.7981  -1.5605 H1   1 T3_EXE     0.023468
  100 H      5.1188   0.9239  -1.9592 H1   1 T3_EXE     0.024833
  101 H      5.3071   1.3941   2.0763 H1   1 T3_EXE     0.024190
  102 H      6.1035   1.8221   1.6441 H1   1 T3_EXE     0.022907
  103 H      5.6693   0.5723   1.6297 H1   1 T3_EXE     0.024065
  104 H      4.8488  -2.9741   1.0027 H1   1 T3_EXE     0.024246
  105 H      3.8958  -3.1268   0.6850 H1   1 T3_EXE     0.033067
  106 H      4.6514  -3.5669   0.1971 H1   1 T3_EXE     0.024054
  107 H      3.8929  -3.3064  -0.4095 H1   1 T3_EXE     0.031843
  108 H      5.3371  -1.0199   2.0748 H1   1 T3_EXE     0.020831
  109 H      6.1758  -1.3557   1.6452 H1   1 T3_EXE     0.018321
  110 H      6.0310  -0.3555   1.5248 H1   1 T3_EXE     0.020537
  111 H      6.4996  -1.0128  -0.7716 H1   1 T3_EXE     0.019350
  112 H      5.9479  -1.9332  -1.3839 H1   1 T3_EXE     0.018992
  113 H      6.1055  -0.3506  -1.4240 H1   1 T3_EXE     0.020533
  114 H      5.1793  -0.3435  -1.8327 H1   1 T3_EXE     0.022033
  115 H      5.7887  -1.1259  -1.9717 H1   1 T3_EXE     0.019274
  116 H     -1.3315   0.8200   1.6999 H1   1 T3_EXE    -0.045102
  117 H     -2.2797   0.6767   1.4054 H1   1 T3_EXE    -0.066600
  118 H     -2.5761   0.1894  -0.9694 H1   1 T3_EXE    -0.062862
  119 H     -2.1278   0.9254  -1.5015 H1   1 T3_EXE    -0.063772
  120 H     -1.1183   0.1038  -1.5208 H1   1 T3_EXE    -0.047026
  121 H     -1.4300  -0.6347   1.6999 H1   1 T3_EXE    -0.035903
  122 H     -2.3527  -0.3689   1.4079 H1   1 T3_EXE    -0.049658
  123 H     -1.7436  -1.5374   1.3994 H1   1 T3_EXE    -0.026273
  124 H     -2.3603  -0.6991  -1.4238 H1   1 T3_EXE    -0.043536
  125 H     -0.4877  -2.6140   1.6761 H1   1 T3_EXE     0.005699
  126 H     -0.7401  -3.5613   1.4224 H1   1 T3_EXE     0.004973
  127 H     -1.3887  -2.7689   1.2623 H1   1 T3_EXE    -0.004890
  128 H     -0.2396  -4.2444   0.8457 H1   1 T3_EXE     0.008061
  129 H      0.6739  -4.1467   0.3749 H1   1 T3_EXE     0.014404
  130 H     -1.0579  -4.2439   0.2533 H1   1 T3_EXE     0.003332
  131 H     -0.1385  -4.4604  -0.1386 H1   1 T3_EXE     0.008270
  132 H     -1.0858  -4.0559  -0.7330 H1   1 T3_EXE     0.003114
  133 H     -1.5081  -2.7797  -1.1434 H1   1 T3_EXE    -0.006430
  134 H     -0.7891  -3.4340  -1.4691 H1   1 T3_EXE     0.004392
  135 H     -0.2416  -2.1430  -1.5802 H1   1 T3_EXE     0.008750
  136 H     -2.6185   1.5868   1.6998 H1   1 T3_EXE    -0.046900
  137 H     -3.1975   2.3518   1.4114 H1   1 T3_EXE    -0.040319
  138 H     -2.1388   2.4200   1.4072 H1   1 T3_EXE    -0.041802
  139 H     -3.9979   2.0113   0.9105 H1   1 T3_EXE    -0.041431
  140 H     -4.1529   2.3362  -0.0727 H1   1 T3_EXE    -0.041852
  141 H     -3.7688   2.3491  -1.0070 H1   1 T3_EXE    -0.040596
  142 H     -1.8369   2.4569  -1.2392 H1   1 T3_EXE    -0.041960
  143 H     -3.5688   1.4531  -1.4053 H1   1 T3_EXE    -0.043483
  144 H     -2.8558   2.4194  -1.4705 H1   1 T3_EXE    -0.040802
  145 H     -3.7224   0.7658   1.5499 H1   1 T3_EXE    -0.043518
  146 H     -4.5596   1.2179   1.2310 H1   1 T3_EXE    -0.040007
  147 H     -4.8292   0.2732   0.9660 H1   1 T3_EXE    -0.042700
  148 H     -5.0617   0.2759  -0.6077 H1   1 T3_EXE    -0.042902
  149 H     -4.3493   0.2843  -1.3311 H1   1 T3_EXE    -0.043136
  150 H     -2.7191  -1.3211   1.5402 H1   1 T3_EXE    -0.035486
  151 H     -2.4755  -2.2415   1.2268 H1   1 T3_EXE    -0.026769
  152 H     -3.4328  -1.8937   1.1230 H1   1 T3_EXE    -0.036210
  153 H     -3.0979  -2.6396   0.5439 H1   1 T3_EXE    -0.028482
  154 H     -2.4438  -2.8303  -0.2012 H1   1 T3_EXE    -0.021069
  155 H     -3.6862  -2.3231  -0.2255 H1   1 T3_EXE    -0.035393
  156 H     -2.9784  -2.4382  -0.9559 H1   1 T3_EXE    -0.029016
  157 H     -2.1378  -2.0118  -1.3131 H1   1 T3_EXE    -0.025849
  158 H     -3.2763  -1.5646  -1.3411 H1   1 T3_EXE    -0.037481
  159 H     -3.7498  -0.6447   1.6999 H1   1 T3_EXE    -0.039155
  160 H     -4.2849  -1.4354  -1.4017 H1   1 T3_EXE    -0.038624
  161 H     -3.3937   0.0242  -1.5259 H1   1 T3_EXE    -0.045101
  162 H     -2.7269   3.2499   1.4536 H1   1 T3_EXE    -0.035584
  163 H     -3.6658   3.2009   1.1030 H1   1 T3_EXE    -0.035892
  164 H     -1.7829   3.3294   1.0958 H1   1 T3_EXE    -0.035473
  165 H     -2.4999   4.0337   0.8743 H1   1 T3_EXE    -0.031687
  166 H     -3.4727   4.0002   0.5323 H1   1 T3_EXE    -0.032041
  167 H     -1.7069   3.9271   0.2699 H1   1 T3_EXE    -0.031757
  168 H     -4.1175   3.3118   0.1937 H1   1 T3_EXE    -0.035349
  169 H     -2.7152   4.3242  -0.0722 H1   1 T3_EXE    -0.030257
  170 H     -3.6180   3.9247  -0.4595 H1   1 T3_EXE    -0.032378
  171 H     -1.5164   3.5172  -0.6403 H1   1 T3_EXE    -0.034624
  172 H     -2.3992   3.9526  -0.9522 H1   1 T3_EXE    -0.032056
  173 H     -3.4638   3.2859  -1.2216 H1   1 T3_EXE    -0.035478
  174 H     -4.8210  -1.2099   1.5201 H1   1 T3_EXE    -0.037546
  175 H     -5.5413  -0.5919   1.1963 H1   1 T3_EXE    -0.036941
  176 H     -5.6106  -1.7301   1.1881 H1   1 T3_EXE    -0.033477
  177 H     -4.5211  -2.1069   1.1800 H1   1 T3_EXE    -0.034801
  178 H     -6.1970  -1.1216   0.6511 H1   1 T3_EXE    -0.032870
  179 H     -5.2695  -2.5021   0.6429 H1   1 T3_EXE    -0.031366
  180 H     -5.6349   0.0233   0.4046 H1   1 T3_EXE    -0.038739
  181 H     -6.0802  -2.0238   0.2336 H1   1 T3_EXE    -0.030721
  182 H     -4.6316  -2.7011  -0.1170 H1   1 T3_EXE    -0.031719
  183 H     -6.2033  -0.5884  -0.2009 H1   1 T3_EXE    -0.034031
  184 H     -5.5277  -2.4455  -0.5112 H1   1 T3_EXE    -0.030934
  185 H     -6.1802  -1.5027  -0.6184 H1   1 T3_EXE    -0.031970
  186 H     -5.6319  -0.4348  -1.0379 H1   1 T3_EXE    -0.037017
  187 H     -4.6559  -2.2921  -1.0413 H1   1 T3_EXE    -0.033667
  188 H     -5.4599  -1.6915  -1.2900 H1   1 T3_EXE    -0.034082
  189 H      0.2590  -3.1579   2.0890 H1   1 T3_EXE     0.011499
  190 H      1.1470  -2.9614   1.6696 H1   1 T3_EXE     0.025701
  191 H      0.4731  -4.0372   1.6625 H1   1 T3_EXE     0.011594
  192 H      1.0865  -3.9372  -0.5398 H1   1 T3_EXE     0.019382
  193 H      0.2971  -4.3357  -1.0419 H1   1 T3_EXE     0.010614
  194 H      1.2059  -3.5686  -1.4860 H1   1 T3_EXE     0.021304
  195 H      0.9103  -2.6388  -1.7564 H1   1 T3_EXE     0.024037
  196 H      0.0588  -3.8073  -1.8712 H1   1 T3_EXE     0.009085
  197 H     -1.6270  -3.6975   0.9759 H1   1 T3_EXE    -0.001906
  198 H     -2.2755  -3.7337   0.2057 H1   1 T3_EXE    -0.007718
  199 H     -2.0304  -3.6351  -0.7652 H1   1 T3_EXE    -0.006004
  200 H     -5.4651   1.4091   0.8437 H1   1 T3_EXE    -0.033787
  201 H     -4.9445   2.2333   0.5787 H1   1 T3_EXE    -0.034722
  202 H     -5.7939   0.9355   0.0121 H1   1 T3_EXE    -0.034461
  203 H     -5.6026   1.9247  -0.1119 H1   1 T3_EXE    -0.031911
